BRD4, Ligand 4
     RDKit          3D

 11 12  0  0  0  0  0  0  0  0999 V2000
    2.0570   -4.8250   10.0430 O   0  0  0  0  0  0  0  0  0  0  0  0
    2.2400   -3.7540   10.6870 C   0  0  0  0  0  0  0  0  0  0  0  0
    2.7280   -3.7680   12.0360 N   0  0  0  0  0  0  0  0  0  0  0  0
    2.5890   -2.6440   12.8810 C   0  0  0  0  0  0  0  0  0  0  0  0
    2.6070   -2.7850   14.2840 C   0  0  0  0  0  0  0  0  0  0  0  0
    2.4460   -1.6990   15.1050 C   0  0  0  0  0  0  0  0  0  0  0  0
    2.2740   -0.4380   14.5660 C   0  0  0  0  0  0  0  0  0  0  0  0
    2.3150   -0.2740   13.1790 C   0  0  0  0  0  0  0  0  0  0  0  0
    2.4260   -1.3780   12.3190 C   0  0  0  0  0  0  0  0  0  0  0  0
    2.4780   -1.2660   10.8920 C   0  0  0  0  0  0  0  0  0  0  0  0
    2.0200   -2.5260   10.1550 N   0  0  0  0  0  0  0  0  0  0  0  0
  1  2  2  0
  2  3  1  0
  2 11  1  0
  3  4  1  0
  4  5  1  0
  4  9  2  0
  5  6  2  0
  6  7  1  0
  7  8  2  0
  8  9  1  0
  9 10  1  0
 10 11  1  0
M  END
$$$$
