BRD4, Ligand 9
     RDKit          3D

 19 22  0  0  1  0  0  0  0  0999 V2000
   -1.6650    0.2210   15.2970 C   0  0  0  0  0  0  0  0  0  0  0  0
   -1.5000   -1.7310   16.6620 C   0  0  0  0  0  0  0  0  0  0  0  0
   -0.5210   -0.1750   14.5970 C   0  0  0  0  0  0  0  0  0  0  0  0
   -0.3720   -2.1360   15.9570 C   0  0  0  0  0  0  0  0  0  0  0  0
    1.5850   -3.0930   14.2270 N   0  0  0  0  0  0  0  0  0  0  0  0
    2.0240   -4.0930   10.0460 N   0  0  0  0  0  0  0  0  0  0  0  0
    2.3110   -4.5930   11.1920 N   0  0  0  0  0  0  0  0  0  0  0  0
    3.1990    0.1300   11.2480 S   0  0  0  0  0  0  0  0  0  0  0  0
    1.3260   -1.7750   14.2070 C   0  0  0  0  0  0  0  0  0  0  0  0
   -2.1710   -0.5630   16.3070 C   0  0  0  0  0  0  0  0  0  0  0  0
    2.0010   -2.7530   10.1340 C   0  0  0  0  0  0  0  0  0  0  0  0
    0.1430   -1.3530   14.9100 C   0  0  0  0  0  0  0  0  0  0  0  0
    3.0370    1.1350   12.6420 C   0  0  0  0  0  0  0  0  0  0  0  0
    2.4210    0.4380   13.6740 C   0  0  0  0  0  0  0  0  0  0  0  0
    2.4840   -3.5660   12.0460 C   0  0  0  0  0  0  0  0  0  0  0  0
    2.0190   -0.8830   13.3360 C   0  0  0  0  0  0  0  0  0  0  0  0
    2.3830   -1.1950   12.0120 C   0  0  0  0  0  0  0  0  0  0  0  0
    2.7920   -3.6570   13.5550 C   0  0  0  0  0  0  0  0  0  0  0  0
    2.2600   -2.4130   11.4150 N   0  0  0  0  0  0  0  0  0  0  0  0
  1  3  2  0
  1 10  1  0
  2  4  1  0
  2 10  2  0
  3 12  1  0
  4 12  2  0
  5  9  2  0
  5 18  1  0
  6  7  1  0
  6 11  2  0
  7 15  2  0
  8 13  1  0
  8 17  1  0
  9 12  1  0
  9 16  1  0
 11 19  1  0
 13 14  2  0
 14 16  1  0
 15 18  1  0
 15 19  1  0
 16 17  2  0
 17 19  1  0
M  END
$$$$
