BRD4, Ligand 5
     RDKit          3D

 20 23  0  0  1  0  0  0  0  0999 V2000
    2.1290   -0.9870   13.1590 C   0  0  0  0  0  0  0  0  0  0  0  0
    2.3790    0.2880   13.6910 C   0  0  0  0  0  0  0  0  0  0  0  0
    2.9870    1.2310   12.8720 C   0  0  0  0  0  0  0  0  0  0  0  0
    3.3260    0.9880   11.5350 C   0  0  0  0  0  0  0  0  0  0  0  0
    3.0650   -0.2910   11.0120 C   0  0  0  0  0  0  0  0  0  0  0  0
    2.4600   -1.2450   11.8200 C   0  0  0  0  0  0  0  0  0  0  0  0
    2.2610   -2.4640   11.1890 N   0  0  0  0  0  0  0  0  0  0  0  0
    1.8610   -2.7750    9.9270 C   0  0  0  0  0  0  0  0  0  0  0  0
    1.8340   -4.1020    9.7850 N   0  0  0  0  0  0  0  0  0  0  0  0
    2.2330   -4.6440   10.8780 N   0  0  0  0  0  0  0  0  0  0  0  0
    2.4940   -3.6520   11.7600 C   0  0  0  0  0  0  0  0  0  0  0  0
    2.8900   -3.8190   13.1940 C   0  0  0  0  0  0  0  0  0  0  0  0
    1.7470   -3.2490   13.9570 N   0  0  0  0  0  0  0  0  0  0  0  0
    1.5060   -1.9220   14.0440 C   0  0  0  0  0  0  0  0  0  0  0  0
    0.3490   -1.5560   14.8260 C   0  0  0  0  0  0  0  0  0  0  0  0
   -0.3930   -0.4170   14.5250 C   0  0  0  0  0  0  0  0  0  0  0  0
   -1.5570   -0.0930   15.2240 C   0  0  0  0  0  0  0  0  0  0  0  0
   -2.0000   -0.8770   16.2860 C   0  0  0  0  0  0  0  0  0  0  0  0
   -1.2580   -1.9990   16.5980 C   0  0  0  0  0  0  0  0  0  0  0  0
   -0.1050   -2.3250   15.8900 C   0  0  0  0  0  0  0  0  0  0  0  0
  1  2  2  0
  1  6  1  0
  1 14  1  0
  2  3  1  0
  3  4  2  0
  4  5  1  0
  5  6  2  0
  6  7  1  0
  7  8  1  0
  7 11  1  0
  8  9  2  0
  9 10  1  0
 10 11  2  0
 11 12  1  0
 12 13  1  0
 13 14  1  0
 14 15  1  0
 15 16  2  0
 15 20  1  0
 16 17  1  0
 17 18  2  0
 18 19  1  0
 19 20  2  0
M  END
$$$$
