BRD4, Ligand 6
     RDKit          3D

 17 19  0  0  0  0  0  0  0  0999 V2000
    2.5440   -0.3150   12.2440 C   0  0  0  0  0  0  0  0  0  0  0  0
    2.3270   -0.8650   10.9970 C   0  0  0  0  0  0  0  0  0  0  0  0
    2.2710   -2.2500   10.8730 C   0  0  0  0  0  0  0  0  0  0  0  0
    2.5640   -5.2610   13.0620 N   0  0  0  0  0  0  0  0  0  0  0  0
    2.4560   -3.0890   11.9740 C   0  0  0  0  0  0  0  0  0  0  0  0
    2.8670   -3.2920   14.4230 N   0  0  0  0  0  0  0  0  0  0  0  0
    2.3840   -4.5480   11.8210 C   0  0  0  0  0  0  0  0  0  0  0  0
    2.7770   -4.6200   14.2770 C   0  0  0  0  0  0  0  0  0  0  0  0
    2.2030   -5.2120   10.7900 O   0  0  0  0  0  0  0  0  0  0  0  0
    3.0080   -5.4910   15.5000 C   0  0  0  0  0  0  0  0  0  0  0  0
    3.2760   -6.8410   15.3030 C   0  0  0  0  0  0  0  0  0  0  0  0
    3.6340   -7.6610   16.3800 C   0  0  0  0  0  0  0  0  0  0  0  0
    3.7410   -7.1070   17.6250 C   0  0  0  0  0  0  0  0  0  0  0  0
    3.4820   -5.7410   17.8840 C   0  0  0  0  0  0  0  0  0  0  0  0
    3.0890   -4.9160   16.8020 C   0  0  0  0  0  0  0  0  0  0  0  0
    2.7030   -2.5300   13.2410 C   0  0  0  0  0  0  0  0  0  0  0  0
    2.7640   -1.1260   13.3960 C   0  0  0  0  0  0  0  0  0  0  0  0
  1  2  2  0
  1 17  1  0
  2  3  1  0
  3  5  2  0
  4  7  1  0
  4  8  1  0
  5  7  1  0
  5 16  1  0
  6  8  2  0
  6 16  1  0
  7  9  2  0
  8 10  1  0
 10 11  2  0
 10 15  1  0
 11 12  1  0
 12 13  2  0
 13 14  1  0
 14 15  2  0
 16 17  2  0
M  END
$$$$
