4fko_B_20K.pdb
     RDKit          3D

 18 20  0  0  1  0  0  0  0  0999 V2000
   -2.1817   -4.8350   29.3652 S   0  0  0  0  0  0  0  0  0  0  0  0
   -0.6859   -2.8860   28.6179 N   0  0  0  0  0  0  0  0  0  0  0  0
   -1.5269   -3.2361   29.5486 C   0  0  0  0  0  0  0  0  0  0  0  0
   -1.4799   -8.9442   26.3778 N   0  0  0  0  0  0  0  0  0  0  0  0
   -0.5065   -3.8727   27.6631 C   0  0  0  0  0  0  0  0  0  0  0  0
   -3.2663   -9.2568   27.7503 N   0  0  0  0  0  0  0  0  0  0  0  0
   -1.2324   -5.0395   27.9192 C   0  0  0  0  0  0  0  0  0  0  0  0
   -2.2515   -7.1616   27.7778 N   0  0  0  0  0  0  0  0  0  0  0  0
   -1.2659   -6.3814   27.3082 C   0  0  0  0  0  0  0  0  0  0  0  0
   -0.3499   -6.8192   26.3611 C   0  0  0  0  0  0  0  0  0  0  0  0
   -0.5070   -8.1291   25.9459 C   0  0  0  0  0  0  0  0  0  0  0  0
   -2.3059   -8.4262   27.2913 C   0  0  0  0  0  0  0  0  0  0  0  0
   -4.2156   -9.1269   28.7807 C   0  0  0  0  0  0  0  0  0  0  0  0
   -4.1940   -8.1180   29.7375 C   0  0  0  0  0  0  0  0  0  0  0  0
   -5.2001   -8.0207   30.6815 C   0  0  0  0  0  0  0  0  0  0  0  0
   -6.2509   -8.9253   30.6761 C   0  0  0  0  0  0  0  0  0  0  0  0
   -6.2635   -9.9168   29.7223 C   0  0  0  0  0  0  0  0  0  0  0  0
   -5.2531  -10.0501   28.7959 C   0  0  0  0  0  0  0  0  0  0  0  0
  1  3  1  0
  1  7  1  0
  2  3  2  0
  2  5  1  0
  4 11  2  0
  4 12  1  0
  5  7  2  0
  6 12  1  0
  6 13  1  0
  8  9  1  0
  8 12  2  0
  9  7  1  0
  9 10  2  0
 10 11  1  0
 13 14  2  0
 13 18  1  0
 14 15  1  0
 15 16  2  0
 16 17  1  0
 17 18  2  0
M  END
$$$$
