4fko_B_20K.pdb
     RDKit          3D

 18 20  0  0  1  0  0  0  0  0999 V2000
   -2.9582   -8.2169   28.4472 S   0  0  0  0  0  0  0  0  0  0  0  0
   -4.9345   -7.8759   30.0510 N   0  0  0  0  0  0  0  0  0  0  0  0
   -4.3194   -8.7929   29.3605 C   0  0  0  0  0  0  0  0  0  0  0  0
   -0.2407   -3.8981   27.9308 N   0  0  0  0  0  0  0  0  0  0  0  0
   -4.3707   -6.6212   29.8922 C   0  0  0  0  0  0  0  0  0  0  0  0
    0.4398   -5.4500   26.4138 N   0  0  0  0  0  0  0  0  0  0  0  0
   -3.2479   -6.6123   29.0598 C   0  0  0  0  0  0  0  0  0  0  0  0
   -1.4132   -5.9753   27.7218 N   0  0  0  0  0  0  0  0  0  0  0  0
   -2.2414   -5.5938   28.7062 C   0  0  0  0  0  0  0  0  0  0  0  0
   -2.1298   -4.3669   29.3465 C   0  0  0  0  0  0  0  0  0  0  0  0
   -1.0878   -3.5660   28.9155 C   0  0  0  0  0  0  0  0  0  0  0  0
   -0.4327   -5.1018   27.3835 C   0  0  0  0  0  0  0  0  0  0  0  0
    0.6416   -6.6517   25.7102 C   0  0  0  0  0  0  0  0  0  0  0  0
    0.0723   -7.8691   26.0679 C   0  0  0  0  0  0  0  0  0  0  0  0
    0.2676   -8.9943   25.2877 C   0  0  0  0  0  0  0  0  0  0  0  0
    1.0269   -8.9168   24.1302 C   0  0  0  0  0  0  0  0  0  0  0  0
    1.5819   -7.7062   23.7846 C   0  0  0  0  0  0  0  0  0  0  0  0
    1.4268   -6.5833   24.5667 C   0  0  0  0  0  0  0  0  0  0  0  0
  1  3  1  0
  1  7  1  0
  2  3  2  0
  2  5  1  0
  4 11  2  0
  4 12  1  0
  5  7  2  0
  6 12  1  0
  6 13  1  0
  8  9  1  0
  8 12  2  0
  9  7  1  0
  9 10  2  0
 10 11  1  0
 13 14  2  0
 13 18  1  0
 14 15  1  0
 15 16  2  0
 16 17  1  0
 17 18  2  0
M  END
$$$$
