4fku_D_60K.pdb
     RDKit          3D

 18 20  0  0  0  0  0  0  0  0999 V2000
    2.9197   -5.0198   25.9631 C   0  0  0  0  0  0  0  0  0  0  0  0
    2.3661   -4.0454   26.7686 C   0  0  0  0  0  0  0  0  0  0  0  0
   -0.6406   -5.7219   27.9672 N   0  0  0  0  0  0  0  0  0  0  0  0
    1.1922   -4.3016   27.4366 C   0  0  0  0  0  0  0  0  0  0  0  0
   -1.4007   -6.8533   27.7412 N   0  0  0  0  0  0  0  0  0  0  0  0
   -2.3514   -5.1278   30.0181 O   0  0  0  0  0  0  0  0  0  0  0  0
    0.5667   -5.5314   27.3153 C   0  0  0  0  0  0  0  0  0  0  0  0
   -3.8856   -6.8633   30.2521 N   0  0  0  0  0  0  0  0  0  0  0  0
   -2.4120   -7.0495   28.5157 C   0  0  0  0  0  0  0  0  0  0  0  0
   -2.8492   -6.2035   29.6706 C   0  0  0  0  0  0  0  0  0  0  0  0
   -4.1963   -8.0403   29.5672 C   0  0  0  0  0  0  0  0  0  0  0  0
   -5.1741   -8.9870   29.8465 C   0  0  0  0  0  0  0  0  0  0  0  0
   -5.3051  -10.0669   28.9892 C   0  0  0  0  0  0  0  0  0  0  0  0
   -4.4738  -10.2244   27.8812 C   0  0  0  0  0  0  0  0  0  0  0  0
   -3.4738   -9.2839   27.6269 C   0  0  0  0  0  0  0  0  0  0  0  0
   -3.3247   -8.1818   28.4715 C   0  0  0  0  0  0  0  0  0  0  0  0
    1.1171   -6.4975   26.4834 C   0  0  0  0  0  0  0  0  0  0  0  0
    2.2820   -6.2372   25.7899 C   0  0  0  0  0  0  0  0  0  0  0  0
  1  2  2  0
  1 18  1  0
  2  4  1  0
  3  7  1  0
  3  5  1  0
  4  7  2  0
  5  9  2  0
  6 10  2  0
  7 17  1  0
  8 10  1  0
  8 11  1  0
  9 16  1  0
  9 10  1  0
 11 16  2  0
 11 12  1  0
 12 13  2  0
 13 14  1  0
 14 15  2  0
 15 16  1  0
 17 18  2  0
M  END
$$$$
