4fku_D_60K.pdb
     RDKit          3D

 18 20  0  0  0  0  0  0  0  0999 V2000
    2.3519   -4.4735   26.5971 C   0  0  0  0  0  0  0  0  0  0  0  0
    2.2021   -5.7476   26.0886 C   0  0  0  0  0  0  0  0  0  0  0  0
   -0.8210   -6.8563   27.7971 N   0  0  0  0  0  0  0  0  0  0  0  0
    1.1357   -6.5180   26.4875 C   0  0  0  0  0  0  0  0  0  0  0  0
   -1.6697   -6.4884   28.8235 N   0  0  0  0  0  0  0  0  0  0  0  0
   -2.4996   -8.9648   27.3253 O   0  0  0  0  0  0  0  0  0  0  0  0
    0.2064   -6.0225   27.3873 C   0  0  0  0  0  0  0  0  0  0  0  0
   -4.3371   -8.8031   28.7458 N   0  0  0  0  0  0  0  0  0  0  0  0
   -2.7079   -7.2253   29.0237 C   0  0  0  0  0  0  0  0  0  0  0  0
   -3.1298   -8.4314   28.2441 C   0  0  0  0  0  0  0  0  0  0  0  0
   -4.7299   -7.9818   29.8052 C   0  0  0  0  0  0  0  0  0  0  0  0
   -5.8894   -8.0279   30.5691 C   0  0  0  0  0  0  0  0  0  0  0  0
   -6.0351   -7.1098   31.5958 C   0  0  0  0  0  0  0  0  0  0  0  0
   -5.0618   -6.1465   31.8573 C   0  0  0  0  0  0  0  0  0  0  0  0
   -3.9145   -6.0886   31.0638 C   0  0  0  0  0  0  0  0  0  0  0  0
   -3.7393   -7.0070   30.0266 C   0  0  0  0  0  0  0  0  0  0  0  0
    0.3780   -4.7488   27.9131 C   0  0  0  0  0  0  0  0  0  0  0  0
    1.4609   -3.9802   27.5360 C   0  0  0  0  0  0  0  0  0  0  0  0
  1  2  2  0
  1 18  1  0
  2  4  1  0
  3  7  1  0
  3  5  1  0
  4  7  2  0
  5  9  2  0
  6 10  2  0
  7 17  1  0
  8 10  1  0
  8 11  1  0
  9 16  1  0
  9 10  1  0
 11 16  2  0
 11 12  1  0
 12 13  2  0
 13 14  1  0
 14 15  2  0
 15 16  1  0
 17 18  2  0
M  END
$$$$
