BRD4, Ligand 6
     RDKit          3D

 17 19  0  0  0  0  0  0  0  0999 V2000
    2.0004   -3.7852    9.7887 C   0  0  0  0  0  0  0  0  0  0  0  0
    1.9109   -2.4228    9.9906 C   0  0  0  0  0  0  0  0  0  0  0  0
    2.1354   -1.9157   11.2669 C   0  0  0  0  0  0  0  0  0  0  0  0
    2.9762   -3.1996   14.6710 N   0  0  0  0  0  0  0  0  0  0  0  0
    2.4209   -2.7553   12.3458 C   0  0  0  0  0  0  0  0  0  0  0  0
    2.8049   -5.0767   13.1651 N   0  0  0  0  0  0  0  0  0  0  0  0
    2.6629   -2.1969   13.6825 C   0  0  0  0  0  0  0  0  0  0  0  0
    3.0461   -4.5559   14.3749 C   0  0  0  0  0  0  0  0  0  0  0  0
    2.6219   -1.0131   14.0478 O   0  0  0  0  0  0  0  0  0  0  0  0
    3.3300   -5.5118   15.5210 C   0  0  0  0  0  0  0  0  0  0  0  0
    3.2223   -5.0288   16.8203 C   0  0  0  0  0  0  0  0  0  0  0  0
    3.3347   -5.8952   17.9144 C   0  0  0  0  0  0  0  0  0  0  0  0
    3.5266   -7.2289   17.6837 C   0  0  0  0  0  0  0  0  0  0  0  0
    3.6422   -7.7760   16.3848 C   0  0  0  0  0  0  0  0  0  0  0  0
    3.5604   -6.8973   15.2771 C   0  0  0  0  0  0  0  0  0  0  0  0
    2.4868   -4.1462   12.1464 C   0  0  0  0  0  0  0  0  0  0  0  0
    2.2641   -4.6887   10.8598 C   0  0  0  0  0  0  0  0  0  0  0  0
  1  2  2  0
  1 17  1  0
  2  3  1  0
  3  5  2  0
  4  7  1  0
  4  8  1  0
  5  7  1  0
  5 16  1  0
  6  8  2  0
  6 16  1  0
  7  9  2  0
  8 10  1  0
 10 11  2  0
 10 15  1  0
 11 12  1  0
 12 13  2  0
 13 14  1  0
 14 15  2  0
 16 17  2  0
M  END
$$$$
