BRD4, Ligand 3
     RDKit          3D

 17 19  0  0  1  0  0  0  0  0999 V2000
    2.6465   -4.1318   15.7097 C   0  0  0  0  0  0  0  0  0  0  0  0
    2.4646   -3.4490   14.3778 C   0  0  0  0  0  0  0  0  0  0  0  0
    2.6132   -4.2179   13.2859 C   0  0  0  0  0  0  0  0  0  0  0  0
    4.0271   -3.7903   16.2752 C   0  0  0  0  0  0  0  0  0  0  0  0
    4.2827   -2.2877   16.4189 C   0  0  0  0  0  0  0  0  0  0  0  0
    3.0322   -1.4754   16.7070 C   0  0  0  0  0  0  0  0  0  0  0  0
    2.8879   -0.8276   17.9294 C   0  0  0  0  0  0  0  0  0  0  0  0
    1.7549   -0.0754   18.2110 C   0  0  0  0  0  0  0  0  0  0  0  0
    0.7554    0.0280   17.2781 C   0  0  0  0  0  0  0  0  0  0  0  0
    0.8966   -0.5912   16.0578 C   0  0  0  0  0  0  0  0  0  0  0  0
    2.0305   -1.3534   15.7648 C   0  0  0  0  0  0  0  0  0  0  0  0
    2.1410   -2.0239   14.4215 C   0  0  0  0  0  0  0  0  0  0  0  0
    1.9346   -1.1780   13.3850 C   0  0  0  0  0  0  0  0  0  0  0  0
    1.9248   -1.4092   11.9607 C   0  0  0  0  0  0  0  0  0  0  0  0
    2.1506   -2.5548   11.3180 C   0  0  0  0  0  0  0  0  0  0  0  0
    2.4757   -3.8569   11.8780 C   0  0  0  0  0  0  0  0  0  0  0  0
    2.6323   -4.7755   11.0784 O   0  0  0  0  0  0  0  0  0  0  0  0
  1  2  1  0
  1  4  1  0
  2  3  2  0
  2 12  1  0
  3 16  1  0
  4  5  1  0
  5  6  1  0
  6  7  1  0
  6 11  2  0
  7  8  2  0
  8  9  1  0
  9 10  2  0
 10 11  1  0
 11 12  1  0
 12 13  2  0
 13 14  1  0
 14 15  2  0
 15 16  1  0
 16 17  2  0
M  END
$$$$
