BRD4, Ligand 10
     RDKit          3D

 19 22  0  0  1  0  0  0  0  0999 V2000
    4.8275   -4.7386   13.1892 C   0  0  0  0  0  0  0  0  0  0  0  0
    3.8337   -5.2725   15.3060 C   0  0  0  0  0  0  0  0  0  0  0  0
    5.8387   -5.6577   13.3879 C   0  0  0  0  0  0  0  0  0  0  0  0
    4.8493   -6.1881   15.5112 C   0  0  0  0  0  0  0  0  0  0  0  0
    2.6614   -0.8564   12.6845 C   0  0  0  0  0  0  0  0  0  0  0  0
    3.8280   -4.5518   14.1292 C   0  0  0  0  0  0  0  0  0  0  0  0
    2.4964   -3.2832   12.4587 C   0  0  0  0  0  0  0  0  0  0  0  0
    2.2164   -4.2670   11.4544 C   0  0  0  0  0  0  0  0  0  0  0  0
    5.8381   -6.3816   14.5622 C   0  0  0  0  0  0  0  0  0  0  0  0
    2.5036   -2.0061   11.9208 C   0  0  0  0  0  0  0  0  0  0  0  0
    2.0678   -0.8034   13.9186 C   0  0  0  0  0  0  0  0  0  0  0  0
    3.2810    0.4024   12.4865 C   0  0  0  0  0  0  0  0  0  0  0  0
    2.0026   -3.6955   10.2111 C   0  0  0  0  0  0  0  0  0  0  0  0
    2.7812   -3.5450   13.8675 C   0  0  0  0  0  0  0  0  0  0  0  0
    1.2965   -1.8629   14.6106 C   0  0  0  0  0  0  0  0  0  0  0  0
    3.0774    1.1726   13.5651 N   0  0  0  0  0  0  0  0  0  0  0  0
    2.2778   -2.9112   14.8924 N   0  0  0  0  0  0  0  0  0  0  0  0
    2.3245    0.4183   14.4710 O   0  0  0  0  0  0  0  0  0  0  0  0
    2.1609   -1.9839   10.2442 S   0  0  0  0  0  0  0  0  0  0  0  0
  1  3  2  0
  1  6  1  0
  2  4  1  0
  2  6  2  0
  3  9  1  0
  4  9  2  0
  5 10  1  0
  5 11  2  0
  5 12  1  0
  6 14  1  0
  7  8  1  0
  7 10  2  0
  7 14  1  0
  8 13  2  0
 10 19  1  0
 11 15  1  0
 11 18  1  0
 12 16  2  0
 13 19  1  0
 14 17  2  0
 15 17  1  0
 16 18  1  0
M  END
$$$$
