BRD4, Ligand 3
     RDKit          3D

 17 19  0  0  1  0  0  0  0  0999 V2000
    2.0344    0.2016   13.9004 C   0  0  0  0  0  0  0  0  0  0  0  0
    2.0673   -1.0617   13.0782 C   0  0  0  0  0  0  0  0  0  0  0  0
    1.8562   -0.9225   11.7586 C   0  0  0  0  0  0  0  0  0  0  0  0
    0.6959    0.2984   14.6362 C   0  0  0  0  0  0  0  0  0  0  0  0
    0.3883   -0.9108   15.5233 C   0  0  0  0  0  0  0  0  0  0  0  0
    1.6227   -1.5748   16.1084 C   0  0  0  0  0  0  0  0  0  0  0  0
    1.8463   -1.5444   17.4808 C   0  0  0  0  0  0  0  0  0  0  0  0
    2.9658   -2.1499   18.0367 C   0  0  0  0  0  0  0  0  0  0  0  0
    3.8731   -2.7819   17.2259 C   0  0  0  0  0  0  0  0  0  0  0  0
    3.6514   -2.8362   15.8692 C   0  0  0  0  0  0  0  0  0  0  0  0
    2.5305   -2.2276   15.2986 C   0  0  0  0  0  0  0  0  0  0  0  0
    2.3307   -2.3008   13.8083 C   0  0  0  0  0  0  0  0  0  0  0  0
    2.4069   -3.5616   13.3215 C   0  0  0  0  0  0  0  0  0  0  0  0
    2.3005   -4.0650   11.9734 C   0  0  0  0  0  0  0  0  0  0  0  0
    2.0689   -3.3716   10.8589 C   0  0  0  0  0  0  0  0  0  0  0  0
    1.8522   -1.9410   10.7126 C   0  0  0  0  0  0  0  0  0  0  0  0
    1.6657   -1.5273    9.5717 O   0  0  0  0  0  0  0  0  0  0  0  0
  1  2  1  0
  1  4  1  0
  2  3  2  0
  2 12  1  0
  3 16  1  0
  4  5  1  0
  5  6  1  0
  6  7  1  0
  6 11  2  0
  7  8  2  0
  8  9  1  0
  9 10  2  0
 10 11  1  0
 11 12  1  0
 12 13  2  0
 13 14  1  0
 14 15  2  0
 15 16  1  0
 16 17  2  0
M  END
$$$$
