3sw4_B_18K.pdb
 OpenBabel04282118083D

 23 25  0  0  0  0  0  0  0  0999 V2000
   -0.1370   -8.0210   26.5240 S   0  0  0  0  0  0  0  0  0  0  0  0
    2.4750   -4.9350   26.1650 C   0  0  0  0  0  0  0  0  0  0  0  0
    2.1130   -7.2840   25.4780 N   0  0  0  0  0  0  0  0  0  0  0  0
    1.6540   -6.1800   26.1720 C   0  0  0  0  0  0  0  0  0  0  0  0
    1.5550   -9.5230   25.0730 N   0  0  0  0  0  0  0  0  0  0  0  0
    1.3000   -8.3100   25.5830 C   0  0  0  0  0  0  0  0  0  0  0  0
   -2.2070   -4.2040   29.2630 N   0  0  0  0  0  0  0  0  0  0  0  0
    0.4280   -6.3890   26.8250 C   0  0  0  0  0  0  0  0  0  0  0  0
   -3.4170   -6.1230   29.4940 N   0  0  0  0  0  0  0  0  0  0  0  0
   -0.4380   -5.5430   27.6640 C   0  0  0  0  0  0  0  0  0  0  0  0
   -5.6910  -11.3010   29.1790 N   0  0  0  0  0  0  0  0  0  0  0  0
   -0.2010   -4.1980   27.9180 C   0  0  0  0  0  0  0  0  0  0  0  0
   -1.4850   -6.2040   28.1800 N   0  0  0  0  0  0  0  0  0  0  0  0
   -1.1350   -3.5860   28.7380 C   0  0  0  0  0  0  0  0  0  0  0  0
   -2.3390   -5.5000   28.9540 C   0  0  0  0  0  0  0  0  0  0  0  0
   -3.9660   -7.4170   29.3970 C   0  0  0  0  0  0  0  0  0  0  0  0
   -4.9340   -7.8100   30.3190 C   0  0  0  0  0  0  0  0  0  0  0  0
   -5.4640   -9.0890   30.2770 C   0  0  0  0  0  0  0  0  0  0  0  0
   -5.0370   -9.9750   29.2920 C   0  0  0  0  0  0  0  0  0  0  0  0
   -7.0590  -11.2120   28.5840 C   0  0  0  0  0  0  0  0  0  0  0  0
   -4.8600  -12.3240   28.4790 C   0  0  0  0  0  0  0  0  0  0  0  0
   -4.0570   -9.5950   28.3710 C   0  0  0  0  0  0  0  0  0  0  0  0
   -3.5290   -8.3170   28.4310 C   0  0  0  0  0  0  0  0  0  0  0  0
  1  8  1  0  0  0  0
  1  6  1  0  0  0  0
  2  4  1  0  0  0  0
  3  4  1  0  0  0  0
  3  6  2  0  0  0  0
  4  8  2  0  0  0  0
  5  6  1  0  0  0  0
  7 14  2  0  0  0  0
  7 15  1  0  0  0  0
  8 10  1  0  0  0  0
  9 15  1  0  0  0  0
  9 16  1  0  0  0  0
 10 12  2  0  0  0  0
 10 13  1  0  0  0  0
 11 19  1  0  0  0  0
 11 20  1  0  0  0  0
 11 21  1  0  0  0  0
 12 14  1  0  0  0  0
 13 15  2  0  0  0  0
 16 17  2  0  0  0  0
 16 23  1  0  0  0  0
 17 18  1  0  0  0  0
 18 19  2  0  0  0  0
 19 22  1  0  0  0  0
 22 23  2  0  0  0  0
M  END
$$$$
