4fki_B_09K.pdb
 OpenBabel04292111593D

 23 25  0  0  0  0  0  0  0  0999 V2000
   -4.2180  -11.6830   34.6100 C   0  0  0  0  0  0  0  0  0  0  0  0
   -4.2360  -12.8550   35.2490 F   0  0  0  0  0  0  0  0  0  0  0  0
   -3.1020   -6.4430   29.3250 N   0  0  0  0  0  0  0  0  0  0  0  0
   -4.9210  -11.7880   33.4250 O   0  0  0  0  0  0  0  0  0  0  0  0
   -4.7630  -10.8830   32.3770 C   0  0  0  0  0  0  0  0  0  0  0  0
   -4.7210  -10.7700   35.4220 F   0  0  0  0  0  0  0  0  0  0  0  0
   -1.8830   -4.4110   29.6280 N   0  0  0  0  0  0  0  0  0  0  0  0
   -2.5780   -8.2790   28.0580 O   0  0  0  0  0  0  0  0  0  0  0  0
   -4.5040  -11.3990   31.0900 C   0  0  0  0  0  0  0  0  0  0  0  0
   -2.9610  -11.3400   34.3710 F   0  0  0  0  0  0  0  0  0  0  0  0
   -0.7320   -3.9050   29.2030 N   0  0  0  0  0  0  0  0  0  0  0  0
   -4.5010  -10.5170   29.9940 C   0  0  0  0  0  0  0  0  0  0  0  0
   -4.7400   -9.1280   30.2090 C   0  0  0  0  0  0  0  0  0  0  0  0
   -4.9610   -8.6520   31.4940 C   0  0  0  0  0  0  0  0  0  0  0  0
   -4.9810   -9.5040   32.6170 C   0  0  0  0  0  0  0  0  0  0  0  0
   -4.7840   -8.2170   29.0610 C   0  0  0  0  0  0  0  0  0  0  0  0
   -3.3730   -7.6740   28.7510 C   0  0  0  0  0  0  0  0  0  0  0  0
   -1.9480   -5.7040   29.1610 C   0  0  0  0  0  0  0  0  0  0  0  0
    0.0040   -4.8220   28.4510 C   0  0  0  0  0  0  0  0  0  0  0  0
   -0.7480   -6.0180   28.4060 C   0  0  0  0  0  0  0  0  0  0  0  0
    1.3030   -4.4370   27.8900 C   0  0  0  0  0  0  0  0  0  0  0  0
    2.3540   -5.4930   27.6760 C   0  0  0  0  0  0  0  0  0  0  0  0
    1.7060   -4.8140   26.4880 C   0  0  0  0  0  0  0  0  0  0  0  0
  1  4  1  0  0  0  0
  1 10  1  0  0  0  0
  1  2  1  0  0  0  0
  1  6  1  0  0  0  0
  3 17  1  0  0  0  0
  3 18  1  0  0  0  0
  4  5  1  0  0  0  0
  5  9  2  0  0  0  0
  5 15  1  0  0  0  0
  7 18  2  0  0  0  0
  7 11  1  0  0  0  0
  8 17  2  0  0  0  0
  9 12  1  0  0  0  0
 11 19  2  0  0  0  0
 12 13  2  0  0  0  0
 13 16  1  0  0  0  0
 13 14  1  0  0  0  0
 14 15  2  0  0  0  0
 16 17  1  0  0  0  0
 18 20  1  0  0  0  0
 19 21  1  0  0  0  0
 19 20  1  0  0  0  0
 21 23  1  0  0  0  0
 21 22  1  0  0  0  0
 22 23  1  0  0  0  0
M  END
$$$$
