4fko_B_20K.pdb
     RDKit          3D

 18 20  0  0  1  0  0  0  0  0999 V2000
   14.6135   20.8021  -11.6269 S   0  0  0  0  0  0  0  0  0  0  0  0
   13.2393   21.2266   -9.4995 N   0  0  0  0  0  0  0  0  0  0  0  0
   13.1118   20.9987  -10.7754 C   0  0  0  0  0  0  0  0  0  0  0  0
   19.6114   20.4160  -10.5431 N   0  0  0  0  0  0  0  0  0  0  0  0
   14.5632   21.2786   -9.0971 C   0  0  0  0  0  0  0  0  0  0  0  0
   19.2925   20.5125  -12.7929 N   0  0  0  0  0  0  0  0  0  0  0  0
   15.4733   21.0409  -10.1310 C   0  0  0  0  0  0  0  0  0  0  0  0
   17.4244   20.8083  -11.4353 N   0  0  0  0  0  0  0  0  0  0  0  0
   16.9342   20.8459  -10.1868 C   0  0  0  0  0  0  0  0  0  0  0  0
   17.7324   20.6817   -9.0627 C   0  0  0  0  0  0  0  0  0  0  0  0
   19.0728   20.4532   -9.3159 C   0  0  0  0  0  0  0  0  0  0  0  0
   18.7559   20.5818  -11.5559 C   0  0  0  0  0  0  0  0  0  0  0  0
   18.7141   20.5053  -14.0756 C   0  0  0  0  0  0  0  0  0  0  0  0
   17.3549   20.3366  -14.3165 C   0  0  0  0  0  0  0  0  0  0  0  0
   16.8538   20.4053  -15.6038 C   0  0  0  0  0  0  0  0  0  0  0  0
   17.7038   20.6554  -16.6703 C   0  0  0  0  0  0  0  0  0  0  0  0
   19.0460   20.8244  -16.4191 C   0  0  0  0  0  0  0  0  0  0  0  0
   19.5680   20.7256  -15.1485 C   0  0  0  0  0  0  0  0  0  0  0  0
  1  3  1  0
  1  7  1  0
  2  3  2  0
  2  5  1  0
  4 11  2  0
  4 12  1  0
  5  7  2  0
  6 12  1  0
  6 13  1  0
  8  9  1  0
  8 12  2  0
  9  7  1  0
  9 10  2  0
 10 11  1  0
 13 14  2  0
 13 18  1  0
 14 15  1  0
 15 16  2  0
 16 17  1  0
 17 18  2  0
M  END
$$$$
