4fkp_B_LS5.pdb
 OpenBabel04282118213D

 25 27  0  0  1  0  0  0  0  0999 V2000
   -0.0500   -3.6930   28.6160 N   0  0  0  0  0  0  0  0  0  0  0  0
   -0.9500   -4.6140   28.9780 C   0  0  0  0  0  0  0  0  0  0  0  0
   -0.7040   -5.8220   28.3220 C   0  0  2  0  0  0  0  0  0  0  0  0
    1.1060   -6.3990   26.5660 C   0  0  0  0  0  0  0  0  0  0  0  0
    2.1800   -5.8440   25.8560 C   0  0  0  0  0  0  0  0  0  0  0  0
    2.5980   -4.5170   26.0850 C   0  0  0  0  0  0  0  0  0  0  0  0
    1.8580   -3.7120   26.9760 C   0  0  0  0  0  0  0  0  0  0  0  0
    0.7840   -4.2570   27.6840 C   0  0  0  0  0  0  0  0  0  0  0  0
    0.3780   -5.5830   27.4460 C   0  0  0  0  0  0  0  0  0  0  0  0
   -1.8480   -4.4740   29.8200 O   0  0  0  0  0  0  0  0  0  0  0  0
   -1.5700   -6.9240   28.3450 C   0  0  0  0  0  0  0  0  0  0  0  0
   -2.6610   -6.9630   29.1300 N   0  0  0  0  0  0  0  0  0  0  0  0
   -3.5780   -7.9490   29.1160 C   0  0  0  0  0  0  0  0  0  0  0  0
   -3.7610   -8.7530   27.9710 C   0  0  0  0  0  0  0  0  0  0  0  0
   -4.7410   -9.7630   27.9900 C   0  0  0  0  0  0  0  0  0  0  0  0
   -5.5700   -9.9300   29.1060 C   0  0  0  0  0  0  0  0  0  0  0  0
   -5.4420   -9.1010   30.2350 C   0  0  0  0  0  0  0  0  0  0  0  0
   -4.4480   -8.1120   30.2040 C   0  0  0  0  0  0  0  0  0  0  0  0
   -6.7980  -11.1450   29.0120 S   0  0  0  0  0  0  0  0  0  0  0  0
   -7.5460  -11.1550   30.3140 O   0  0  0  0  0  0  0  0  0  0  0  0
   -7.6530  -10.7960   27.8410 O   0  0  0  0  0  0  0  0  0  0  0  0
   -5.9620  -12.4950   28.7180 N   0  0  0  0  0  0  0  0  0  0  0  0
   -5.1470  -13.0540   29.6350 C   0  0  0  0  0  0  0  0  0  0  0  0
   -4.4100  -14.1060   29.2970 N   0  0  0  0  0  0  0  0  0  0  0  0
   -5.0780  -12.6120   30.8950 N   0  0  0  0  0  0  0  0  0  0  0  0
  1  2  1  0  0  0  0
  1  8  1  0  0  0  0
  2  3  1  0  0  0  0
  2 10  2  0  0  0  0
  3  9  1  0  0  0  0
  3 11  1  6  0  0  0
  4  5  2  0  0  0  0
  4  9  1  0  0  0  0
  5  6  1  0  0  0  0
  6  7  2  0  0  0  0
  7  8  1  0  0  0  0
  8  9  2  0  0  0  0
 11 12  2  0  0  0  0
 12 13  1  0  0  0  0
 13 14  2  0  0  0  0
 13 18  1  0  0  0  0
 14 15  1  0  0  0  0
 15 16  2  0  0  0  0
 16 17  1  0  0  0  0
 16 19  1  0  0  0  0
 17 18  2  0  0  0  0
 19 20  2  0  0  0  0
 19 21  2  0  0  0  0
 19 22  1  0  0  0  0
 22 23  2  0  0  0  0
 23 24  1  0  0  0  0
 23 25  1  0  0  0  0
M  END
$$$$
