4fkq_B_42K.pdb
     RDKit          3D

 21 24  0  0  1  0  0  0  0  0999 V2000
   11.4210  -13.0298   24.6871 N   0  0  0  0  0  0  0  0  0  0  0  0
   14.2599  -11.3673   20.3509 N   0  0  0  0  0  0  0  0  0  0  0  0
   14.4034  -12.5108   19.8705 N   0  0  0  0  0  0  0  0  0  0  0  0
   13.8480  -13.4044   20.5556 N   0  0  0  0  0  0  0  0  0  0  0  0
   12.2405  -15.7633   22.6161 N   0  0  0  0  0  0  0  0  0  0  0  0
   11.6826  -16.7947   23.0552 N   0  0  0  0  0  0  0  0  0  0  0  0
   10.8611  -15.2104   25.0937 O   0  0  0  0  0  0  0  0  0  0  0  0
   12.0607  -18.0407   21.0362 C   0  0  0  0  0  0  0  0  0  0  0  0
   11.2550  -19.1361   23.0460 C   0  0  0  0  0  0  0  0  0  0  0  0
   12.0208  -19.2648   20.3560 C   0  0  0  0  0  0  0  0  0  0  0  0
   11.2187  -20.3586   22.3749 C   0  0  0  0  0  0  0  0  0  0  0  0
   13.1470  -10.5515   22.4505 C   0  0  0  0  0  0  0  0  0  0  0  0
   12.4100  -11.0159   23.5649 C   0  0  0  0  0  0  0  0  0  0  0  0
   11.7077  -17.9792   22.3970 C   0  0  0  0  0  0  0  0  0  0  0  0
   11.5964  -20.4131   21.0306 C   0  0  0  0  0  0  0  0  0  0  0  0
   11.4642  -14.3417   24.4372 C   0  0  0  0  0  0  0  0  0  0  0  0
   12.1712  -14.5677   23.2574 C   0  0  0  0  0  0  0  0  0  0  0  0
   13.6048  -11.4813   21.5193 C   0  0  1  0  0  0  0  0  0  0  0  0
   12.1303  -12.3874   23.7343 C   0  0  0  0  0  0  0  0  0  0  0  0
   13.2774  -12.8373   21.6404 C   0  0  0  0  0  0  0  0  0  0  0  0
   12.5906  -13.3144   22.7842 C   0  0  0  0  0  0  0  0  0  0  0  0
  1 16  1  0
  1 19  1  0
  2  3  2  0
  2 18  1  0
  3  4  1  0
  4 20  2  0
  5  6  1  0
  5 17  2  0
  6 14  1  0
  7 16  2  0
  8 10  2  0
  8 14  1  0
  9 11  1  0
  9 14  2  0
 10 15  1  0
 11 15  2  0
 12 13  2  0
 13 19  1  0
 16 17  1  0
 17 21  1  0
 18 12  1  6
 18 20  1  0
 19 21  2  0
 20 21  1  0
M  END
$$$$
