4fkq_B_42K.pdb
     RDKit          3D

 21 24  0  0  1  0  0  0  0  0999 V2000
   -0.1280   -3.7520   28.6780 N   0  0  0  0  0  0  0  0  0  0  0  0
    2.4270   -6.6750   24.8630 N   0  0  0  0  0  0  0  0  0  0  0  0
    1.6920   -7.6770   24.9840 N   0  0  0  0  0  0  0  0  0  0  0  0
    0.7860   -7.5210   25.8390 N   0  0  0  0  0  0  0  0  0  0  0  0
   -1.6720   -6.8970   28.2810 N   0  0  0  0  0  0  0  0  0  0  0  0
   -2.7080   -6.9390   28.9830 N   0  0  0  0  0  0  0  0  0  0  0  0
   -1.9440   -4.4910   29.8570 O   0  0  0  0  0  0  0  0  0  0  0  0
   -3.5630   -8.8900   27.8720 C   0  0  0  0  0  0  0  0  0  0  0  0
   -4.5960   -8.0580   29.9040 C   0  0  0  0  0  0  0  0  0  0  0  0
   -4.5140   -9.9170   27.8120 C   0  0  0  0  0  0  0  0  0  0  0  0
   -5.5420   -9.0820   29.8520 C   0  0  0  0  0  0  0  0  0  0  0  0
    2.4710   -4.4660   26.0590 C   0  0  0  0  0  0  0  0  0  0  0  0
    1.7840   -3.7320   27.0540 C   0  0  0  0  0  0  0  0  0  0  0  0
   -3.5820   -7.9740   28.9400 C   0  0  0  0  0  0  0  0  0  0  0  0
   -5.4980  -10.0020   28.8010 C   0  0  0  0  0  0  0  0  0  0  0  0
   -1.0160   -4.6790   29.0490 C   0  0  0  0  0  0  0  0  0  0  0  0
   -0.8250   -5.8350   28.2940 C   0  0  0  0  0  0  0  0  0  0  0  0
    2.0430   -5.7600   25.7700 C   0  0  1  0  0  0  0  0  0  0  0  0
    0.6820   -4.2850   27.7380 C   0  0  0  0  0  0  0  0  0  0  0  0
    0.9100   -6.2960   26.3940 C   0  0  0  0  0  0  0  0  0  0  0  0
    0.2550   -5.5880   27.4320 C   0  0  0  0  0  0  0  0  0  0  0  0
  1 16  1  0
  1 19  1  0
  2  3  2  0
  2 18  1  0
  3  4  1  0
  4 20  2  0
  5  6  1  0
  5 17  2  0
  6 14  1  0
  7 16  2  0
  8 10  2  0
  8 14  1  0
  9 11  1  0
  9 14  2  0
 10 15  1  0
 11 15  2  0
 12 13  2  0
 13 19  1  0
 16 17  1  0
 17 21  1  0
 18 12  1  6
 18 20  1  0
 19 21  2  0
 20 21  1  0
M  END
$$$$
