4fkv_B_61K.pdb
     RDKit          3D

 28 31  0  0  0  0  0  0  0  0999 V2000
   -3.3907   -9.9712   27.6232 N   0  0  0  0  0  0  0  0  0  0  0  0
   -4.2327   -9.0246   29.3624 N   0  0  0  0  0  0  0  0  0  0  0  0
   -1.1321   -6.3628   28.8044 N   0  0  0  0  0  0  0  0  0  0  0  0
    3.8351   -6.4073   24.8160 N   0  0  0  0  0  0  0  0  0  0  0  0
    1.6963   -9.2038   24.8058 N   0  0  0  0  0  0  0  0  0  0  0  0
    2.1664  -10.1053   24.0777 N   0  0  0  0  0  0  0  0  0  0  0  0
   -0.6199   -4.1535   28.7638 O   0  0  0  0  0  0  0  0  0  0  0  0
    4.0896   -8.2315   23.4764 O   0  0  0  0  0  0  0  0  0  0  0  0
    0.8499  -11.8198   25.0743 C   0  0  0  0  0  0  0  0  0  0  0  0
    2.0125  -12.2206   22.9942 C   0  0  0  0  0  0  0  0  0  0  0  0
    0.3808  -13.1339   25.0748 C   0  0  0  0  0  0  0  0  0  0  0  0
    1.5254  -13.5373   22.9689 C   0  0  0  0  0  0  0  0  0  0  0  0
    1.7735   -4.6529   27.3797 C   0  0  0  0  0  0  0  0  0  0  0  0
    2.8266   -4.8477   26.4792 C   0  0  0  0  0  0  0  0  0  0  0  0
   -4.0795  -10.1913   28.7405 C   0  0  0  0  0  0  0  0  0  0  0  0
   -3.1275   -8.6661   27.5482 C   0  0  0  0  0  0  0  0  0  0  0  0
    0.8579   -6.8132   26.7430 C   0  0  0  0  0  0  0  0  0  0  0  0
   -2.3000   -6.2157   29.7027 C   0  0  0  0  0  0  0  0  0  0  0  0
   -3.5839   -6.5888   28.9524 C   0  0  0  0  0  0  0  0  0  0  0  0
   -0.3808   -5.3249   28.4511 C   0  0  0  0  0  0  0  0  0  0  0  0
    1.6568  -11.3498   24.0279 C   0  0  0  0  0  0  0  0  0  0  0  0
    0.7743   -5.6211   27.4863 C   0  0  0  0  0  0  0  0  0  0  0  0
   -3.6408   -8.0811   28.6262 C   0  0  0  0  0  0  0  0  0  0  0  0
    0.7168  -13.9815   24.0175 C   0  0  0  0  0  0  0  0  0  0  0  0
    3.4587   -7.5881   24.3225 C   0  0  0  0  0  0  0  0  0  0  0  0
    2.2562   -7.9856   24.9128 C   0  0  0  0  0  0  0  0  0  0  0  0
    2.9216   -6.0241   25.7335 C   0  0  0  0  0  0  0  0  0  0  0  0
    1.9438   -7.0150   25.8698 C   0  0  0  0  0  0  0  0  0  0  0  0
  1 16  2  0
  1 15  1  0
  2 23  2  0
  2 15  1  0
  3 20  1  0
  3 18  1  0
  4 27  1  0
  4 25  1  0
  5 26  2  0
  5  6  1  0
  6 21  1  0
  7 20  2  0
  8 25  2  0
  9 21  2  0
  9 11  1  0
 10 21  1  0
 10 12  2  0
 11 24  2  0
 12 24  1  0
 13 14  1  0
 13 22  2  0
 14 27  2  0
 16 23  1  0
 17 28  2  0
 17 22  1  0
 18 19  1  0
 19 23  1  0
 20 22  1  0
 25 26  1  0
 26 28  1  0
 27 28  1  0
M  END
$$$$
