3sw4_B_18K.pdb
     RDKit          3D

 18 20  0  0  0  0  0  0  0  0999 V2000
   -0.1370   -8.0210   26.5240 S   0  0  0  0  0  0  0  0  0  0  0  0
    2.1130   -7.2840   25.4780 N   0  0  0  0  0  0  0  0  0  0  0  0
    1.6540   -6.1800   26.1720 C   0  0  0  0  0  0  0  0  0  0  0  0
    1.3000   -8.3100   25.5830 C   0  0  0  0  0  0  0  0  0  0  0  0
   -2.2070   -4.2040   29.2630 N   0  0  0  0  0  0  0  0  0  0  0  0
    0.4280   -6.3890   26.8250 C   0  0  0  0  0  0  0  0  0  0  0  0
   -3.4170   -6.1230   29.4940 N   0  0  0  0  0  0  0  0  0  0  0  0
   -0.4380   -5.5430   27.6640 C   0  0  0  0  0  0  0  0  0  0  0  0
   -0.2010   -4.1980   27.9180 C   0  0  0  0  0  0  0  0  0  0  0  0
   -1.4850   -6.2040   28.1800 N   0  0  0  0  0  0  0  0  0  0  0  0
   -1.1350   -3.5860   28.7380 C   0  0  0  0  0  0  0  0  0  0  0  0
   -2.3390   -5.5000   28.9540 C   0  0  0  0  0  0  0  0  0  0  0  0
   -3.9660   -7.4170   29.3970 C   0  0  0  0  0  0  0  0  0  0  0  0
   -4.9340   -7.8100   30.3190 C   0  0  0  0  0  0  0  0  0  0  0  0
   -5.4640   -9.0890   30.2770 C   0  0  0  0  0  0  0  0  0  0  0  0
   -5.0370   -9.9750   29.2920 C   0  0  0  0  0  0  0  0  0  0  0  0
   -4.0570   -9.5950   28.3710 C   0  0  0  0  0  0  0  0  0  0  0  0
   -3.5290   -8.3170   28.4310 C   0  0  0  0  0  0  0  0  0  0  0  0
  1  6  1  0
  1  4  1  0
  2  3  1  0
  2  4  2  0
  3  6  2  0
  5 11  2  0
  5 12  1  0
  6  8  1  0
  7 12  1  0
  7 13  1  0
  8  9  2  0
  8 10  1  0
  9 11  1  0
 10 12  2  0
 13 14  2  0
 13 18  1  0
 14 15  1  0
 15 16  2  0
 16 17  1  0
 17 18  2  0
M  END
$$$$
