3sw7_B_19K.pdb
     RDKit          3D

 26 28  0  0  0  0  0  0  0  0999 V2000
   32.5993  -10.2594    5.1091 S   0  0  0  0  0  0  0  0  0  0  0  0
   31.8554   -8.4955    3.0263 C   0  0  0  0  0  0  0  0  0  0  0  0
   32.4428   -7.7020    5.2879 N   0  0  0  0  0  0  0  0  0  0  0  0
   35.7713  -18.1603    6.3159 O   0  0  0  0  0  0  0  0  0  0  0  0
   32.2815   -8.6840    4.4470 C   0  0  0  0  0  0  0  0  0  0  0  0
   33.6926  -12.3963    9.6549 N   0  0  0  0  0  0  0  0  0  0  0  0
   32.8359   -8.1401    6.5413 C   0  0  0  0  0  0  0  0  0  0  0  0
   33.9088  -13.9212    7.9456 N   0  0  0  0  0  0  0  0  0  0  0  0
   33.1574   -7.1177    7.5799 C   0  0  0  0  0  0  0  0  0  0  0  0
   33.8466  -16.3849    2.7912 N   0  0  0  0  0  0  0  0  0  0  0  0
   32.9531   -9.5386    6.6579 C   0  0  0  0  0  0  0  0  0  0  0  0
   35.0257  -17.8772    5.3897 N   0  0  0  0  0  0  0  0  0  0  0  0
   33.1867  -10.4719    7.7766 C   0  0  0  0  0  0  0  0  0  0  0  0
   33.4248  -11.7309    7.3776 N   0  0  0  0  0  0  0  0  0  0  0  0
   33.1901  -10.0954    9.1148 C   0  0  0  0  0  0  0  0  0  0  0  0
   33.4438  -11.1228   10.0083 C   0  0  0  0  0  0  0  0  0  0  0  0
   33.6592  -12.6485    8.3389 C   0  0  0  0  0  0  0  0  0  0  0  0
   33.8806  -14.5804    6.6959 C   0  0  0  0  0  0  0  0  0  0  0  0
   33.3310  -13.9639    5.5799 C   0  0  0  0  0  0  0  0  0  0  0  0
   33.3266  -14.6029    4.3553 C   0  0  0  0  0  0  0  0  0  0  0  0
   33.8535  -15.8709    4.1861 C   0  0  0  0  0  0  0  0  0  0  0  0
   32.9342  -17.5493    2.5955 C   0  0  0  0  0  0  0  0  0  0  0  0
   35.2125  -16.6413    2.2438 C   0  0  0  0  0  0  0  0  0  0  0  0
   34.4091  -16.5391    5.3740 C   0  0  0  0  0  0  0  0  0  0  0  0
   34.4272  -15.8547    6.5764 C   0  0  0  0  0  0  0  0  0  0  0  0
   34.9062  -18.5880    4.4080 O   0  0  0  0  0  0  0  0  0  0  0  0
  1  5  1  0
  1 11  1  0
  2  5  1  0
  3  5  2  0
  3  7  1  0
  4 12  2  0
  6 17  2  0
  6 16  1  0
  7 11  2  0
  7  9  1  0
  8 18  1  0
  8 17  1  0
 10 22  1  0
 10 23  1  0
 10 21  1  0
 11 13  1  0
 12 24  1  0
 12 26  1  0
 13 14  2  0
 13 15  1  0
 14 17  1  0
 15 16  2  0
 18 25  1  0
 18 19  2  0
 19 20  1  0
 20 21  2  0
 21 24  1  0
 24 25  2  0
M  CHG  2  12   1  26  -1
M  END
$$$$
