3sw7_B_19K.pdb
     RDKit          3D

 26 28  0  0  0  0  0  0  0  0999 V2000
   27.0969  -11.1562    1.9564 S   0  0  0  0  0  0  0  0  0  0  0  0
   26.3529   -9.3922   -0.1264 C   0  0  0  0  0  0  0  0  0  0  0  0
   26.9404   -8.5988    2.1352 N   0  0  0  0  0  0  0  0  0  0  0  0
   30.2688  -19.0571    3.1632 O   0  0  0  0  0  0  0  0  0  0  0  0
   26.7790   -9.5808    1.2943 C   0  0  0  0  0  0  0  0  0  0  0  0
   28.1901  -13.2931    6.5022 N   0  0  0  0  0  0  0  0  0  0  0  0
   27.3334   -9.0369    3.3886 C   0  0  0  0  0  0  0  0  0  0  0  0
   28.4064  -14.8180    4.7929 N   0  0  0  0  0  0  0  0  0  0  0  0
   27.6549   -8.0144    4.4272 C   0  0  0  0  0  0  0  0  0  0  0  0
   28.3442  -17.2817   -0.3615 N   0  0  0  0  0  0  0  0  0  0  0  0
   27.4506  -10.4354    3.5051 C   0  0  0  0  0  0  0  0  0  0  0  0
   29.5232  -18.7740    2.2370 N   0  0  0  0  0  0  0  0  0  0  0  0
   27.6843  -11.3687    4.6239 C   0  0  0  0  0  0  0  0  0  0  0  0
   27.9223  -12.6276    4.2249 N   0  0  0  0  0  0  0  0  0  0  0  0
   27.6877  -10.9921    5.9621 C   0  0  0  0  0  0  0  0  0  0  0  0
   27.9413  -12.0196    6.8556 C   0  0  0  0  0  0  0  0  0  0  0  0
   28.1567  -13.5453    5.1862 C   0  0  0  0  0  0  0  0  0  0  0  0
   28.3781  -15.4772    3.5432 C   0  0  0  0  0  0  0  0  0  0  0  0
   27.8286  -14.8607    2.4272 C   0  0  0  0  0  0  0  0  0  0  0  0
   27.8241  -15.4997    1.2026 C   0  0  0  0  0  0  0  0  0  0  0  0
   28.3511  -16.7677    1.0334 C   0  0  0  0  0  0  0  0  0  0  0  0
   27.4317  -18.4461   -0.5572 C   0  0  0  0  0  0  0  0  0  0  0  0
   29.7101  -17.5381   -0.9089 C   0  0  0  0  0  0  0  0  0  0  0  0
   28.9067  -17.4359    2.2213 C   0  0  0  0  0  0  0  0  0  0  0  0
   28.9248  -16.7515    3.4237 C   0  0  0  0  0  0  0  0  0  0  0  0
   29.4038  -19.4848    1.2553 O   0  0  0  0  0  0  0  0  0  0  0  0
  1  5  1  0
  1 11  1  0
  2  5  1  0
  3  5  2  0
  3  7  1  0
  4 12  2  0
  6 17  2  0
  6 16  1  0
  7 11  2  0
  7  9  1  0
  8 18  1  0
  8 17  1  0
 10 22  1  0
 10 23  1  0
 10 21  1  0
 11 13  1  0
 12 24  1  0
 12 26  1  0
 13 14  2  0
 13 15  1  0
 14 17  1  0
 15 16  2  0
 18 25  1  0
 18 19  2  0
 19 20  1  0
 20 21  2  0
 21 24  1  0
 24 25  2  0
M  CHG  2  12   1  26  -1
M  END
$$$$
