4ek5_B_03K.pdb
 OpenBabel04292111593D

 20 22  0  0  0  0  0  0  0  0999 V2000
   -2.9440   -6.4710   29.6080 N   0  0  0  0  0  0  0  0  0  0  0  0
   -8.7160  -11.0480   30.2150 N   0  0  0  0  0  0  0  0  0  0  0  0
   -0.9200   -3.7810   29.2350 N   0  0  0  0  0  0  0  0  0  0  0  0
   -1.9280   -4.3850   29.6720 N   0  0  0  0  0  0  0  0  0  0  0  0
   -7.6690  -11.1630   32.2110 O   0  0  0  0  0  0  0  0  0  0  0  0
   -2.4470   -8.1920   28.1950 O   0  0  0  0  0  0  0  0  0  0  0  0
   -6.1350  -10.0690   29.1350 C   0  0  0  0  0  0  0  0  0  0  0  0
   -5.8500   -9.1380   31.3320 C   0  0  0  0  0  0  0  0  0  0  0  0
   -5.0670   -9.2900   28.6790 C   0  0  0  0  0  0  0  0  0  0  0  0
   -4.7840   -8.3710   30.8870 C   0  0  0  0  0  0  0  0  0  0  0  0
   -0.7880   -5.8570   28.5470 C   0  0  0  0  0  0  0  0  0  0  0  0
    1.5730   -4.7710   26.5690 C   0  0  0  0  0  0  0  0  0  0  0  0
    2.3110   -5.2000   27.8500 C   0  0  0  0  0  0  0  0  0  0  0  0
   -7.7130  -10.7830   31.0380 C   0  0  0  0  0  0  0  0  0  0  0  0
   -3.1690   -7.6720   29.0470 C   0  0  0  0  0  0  0  0  0  0  0  0
   -6.5520   -9.9560   30.4600 C   0  0  0  0  0  0  0  0  0  0  0  0
   -4.3760   -8.4510   29.5590 C   0  0  0  0  0  0  0  0  0  0  0  0
   -1.9120   -5.6540   29.2710 C   0  0  0  0  0  0  0  0  0  0  0  0
   -0.1700   -4.6580   28.5500 C   0  0  0  0  0  0  0  0  0  0  0  0
    1.1680   -4.1820   27.9330 C   0  0  0  0  0  0  0  0  0  0  0  0
  1 15  1  0  0  0  0
  1 18  1  0  0  0  0
  2 14  1  0  0  0  0
  3 19  2  0  0  0  0
  3  4  1  0  0  0  0
  4 18  2  0  0  0  0
  5 14  2  0  0  0  0
  6 15  2  0  0  0  0
  7  9  2  0  0  0  0
  7 16  1  0  0  0  0
  8 16  2  0  0  0  0
  8 10  1  0  0  0  0
  9 17  1  0  0  0  0
 10 17  2  0  0  0  0
 11 19  1  0  0  0  0
 11 18  1  0  0  0  0
 12 13  1  0  0  0  0
 12 20  1  0  0  0  0
 13 20  1  0  0  0  0
 14 16  1  0  0  0  0
 15 17  1  0  0  0  0
 19 20  1  0  0  0  0
M  END
$$$$
