4ek5_B_03K.pdb
     RDKit          3D

 20 22  0  0  0  0  0  0  0  0999 V2000
   25.2253  -12.9788   12.2116 N   0  0  0  0  0  0  0  0  0  0  0  0
   22.6070  -19.1130   15.3974 N   0  0  0  0  0  0  0  0  0  0  0  0
   26.1707   -9.8066   11.4938 N   0  0  0  0  0  0  0  0  0  0  0  0
   26.0395  -10.8053   12.2403 N   0  0  0  0  0  0  0  0  0  0  0  0
   24.8132  -19.4979   15.1181 O   0  0  0  0  0  0  0  0  0  0  0  0
   23.9048  -13.9240   10.6091 O   0  0  0  0  0  0  0  0  0  0  0  0
   22.8888  -17.0761   13.2624 C   0  0  0  0  0  0  0  0  0  0  0  0
   25.1160  -16.8304   14.1307 C   0  0  0  0  0  0  0  0  0  0  0  0
   23.0559  -15.8956   12.5317 C   0  0  0  0  0  0  0  0  0  0  0  0
   25.2902  -15.6647   13.4004 C   0  0  0  0  0  0  0  0  0  0  0  0
   25.2870  -11.4107   10.2911 C   0  0  0  0  0  0  0  0  0  0  0  0
   24.6911   -9.0708    8.0920 C   0  0  0  0  0  0  0  0  0  0  0  0
   26.0793   -9.6147    7.7088 C   0  0  0  0  0  0  0  0  0  0  0  0
   23.8074  -18.8090   14.9281 C   0  0  0  0  0  0  0  0  0  0  0  0
   24.4412  -13.9529   11.7178 C   0  0  0  0  0  0  0  0  0  0  0  0
   23.9125  -17.5181   14.0985 C   0  0  0  0  0  0  0  0  0  0  0  0
   24.2652  -15.1951   12.5847 C   0  0  0  0  0  0  0  0  0  0  0  0
   25.4894  -11.8126   11.5664 C   0  0  0  0  0  0  0  0  0  0  0  0
   25.7392  -10.1401   10.2677 C   0  0  0  0  0  0  0  0  0  0  0  0
   25.8294   -9.0947    9.1290 C   0  0  0  0  0  0  0  0  0  0  0  0
  1 15  1  0
  1 18  1  0
  2 14  1  0
  3 19  2  0
  3  4  1  0
  4 18  2  0
  5 14  2  0
  6 15  2  0
  7  9  2  0
  7 16  1  0
  8 16  2  0
  8 10  1  0
  9 17  1  0
 10 17  2  0
 11 19  1  0
 11 18  1  0
 12 13  1  0
 12 20  1  0
 13 20  1  0
 14 16  1  0
 15 17  1  0
 19 20  1  0
M  END
$$$$
