4ek5_B_03K.pdb
     RDKit          3D

 17 19  0  0  0  0  0  0  0  0999 V2000
   25.2253  -12.9788   12.2116 N   0  0  0  0  0  0  0  0  0  0  0  0
   26.1707   -9.8066   11.4938 N   0  0  0  0  0  0  0  0  0  0  0  0
   26.0395  -10.8053   12.2403 N   0  0  0  0  0  0  0  0  0  0  0  0
   23.9048  -13.9240   10.6091 O   0  0  0  0  0  0  0  0  0  0  0  0
   22.8888  -17.0761   13.2624 C   0  0  0  0  0  0  0  0  0  0  0  0
   25.1160  -16.8304   14.1307 C   0  0  0  0  0  0  0  0  0  0  0  0
   23.0559  -15.8956   12.5317 C   0  0  0  0  0  0  0  0  0  0  0  0
   25.2902  -15.6647   13.4004 C   0  0  0  0  0  0  0  0  0  0  0  0
   25.2870  -11.4107   10.2911 C   0  0  0  0  0  0  0  0  0  0  0  0
   24.6911   -9.0708    8.0920 C   0  0  0  0  0  0  0  0  0  0  0  0
   26.0793   -9.6147    7.7088 C   0  0  0  0  0  0  0  0  0  0  0  0
   24.4412  -13.9529   11.7178 C   0  0  0  0  0  0  0  0  0  0  0  0
   23.9125  -17.5181   14.0985 C   0  0  0  0  0  0  0  0  0  0  0  0
   24.2652  -15.1951   12.5847 C   0  0  0  0  0  0  0  0  0  0  0  0
   25.4894  -11.8126   11.5664 C   0  0  0  0  0  0  0  0  0  0  0  0
   25.7392  -10.1401   10.2677 C   0  0  0  0  0  0  0  0  0  0  0  0
   25.8294   -9.0947    9.1290 C   0  0  0  0  0  0  0  0  0  0  0  0
  1 12  1  0
  1 15  1  0
  2 16  2  0
  2  3  1  0
  3 15  2  0
  4 12  2  0
  5  7  2  0
  5 13  1  0
  6 13  2  0
  6  8  1  0
  7 14  1  0
  8 14  2  0
  9 16  1  0
  9 15  1  0
 10 11  1  0
 10 17  1  0
 11 17  1  0
 12 14  1  0
 16 17  1  0
M  END
$$$$
