4fki_B_09K.pdb
     RDKit          3D

 23 25  0  0  0  0  0  0  0  0999 V2000
   16.8449  -22.3150   25.3375 C   0  0  0  0  0  0  0  0  0  0  0  0
   17.6310  -23.3924   25.2800 F   0  0  0  0  0  0  0  0  0  0  0  0
   13.1466  -16.0567   23.3906 N   0  0  0  0  0  0  0  0  0  0  0  0
   15.8516  -22.4118   24.3817 O   0  0  0  0  0  0  0  0  0  0  0  0
   15.1299  -21.3061   23.9360 C   0  0  0  0  0  0  0  0  0  0  0  0
   16.3642  -22.2280   26.5653 F   0  0  0  0  0  0  0  0  0  0  0  0
   13.2997  -13.9539   24.5138 N   0  0  0  0  0  0  0  0  0  0  0  0
   13.8797  -16.6472   21.3015 O   0  0  0  0  0  0  0  0  0  0  0  0
   15.0409  -21.0905   22.5449 C   0  0  0  0  0  0  0  0  0  0  0  0
   17.5794  -21.2322   25.1305 F   0  0  0  0  0  0  0  0  0  0  0  0
   13.7995  -12.7534   24.2481 N   0  0  0  0  0  0  0  0  0  0  0  0
   14.1878  -20.0780   22.0690 C   0  0  0  0  0  0  0  0  0  0  0  0
   13.4512  -19.2857   22.9975 C   0  0  0  0  0  0  0  0  0  0  0  0
   13.5876  -19.5069   24.3610 C   0  0  0  0  0  0  0  0  0  0  0  0
   14.4247  -20.5168   24.8776 C   0  0  0  0  0  0  0  0  0  0  0  0
   12.5264  -18.2628   22.4993 C   0  0  0  0  0  0  0  0  0  0  0  0
   13.2613  -16.9185   22.3125 C   0  0  0  0  0  0  0  0  0  0  0  0
   13.6492  -14.7735   23.4649 C   0  0  0  0  0  0  0  0  0  0  0  0
   14.4902  -12.7239   23.0356 C   0  0  0  0  0  0  0  0  0  0  0  0
   14.4277  -14.0273   22.4923 C   0  0  0  0  0  0  0  0  0  0  0  0
   15.1060  -11.4766   22.5715 C   0  0  0  0  0  0  0  0  0  0  0  0
   16.3300  -11.5412   21.6978 C   0  0  0  0  0  0  0  0  0  0  0  0
   15.0194  -11.0350   21.1336 C   0  0  0  0  0  0  0  0  0  0  0  0
  1  4  1  0
  1 10  1  0
  1  2  1  0
  1  6  1  0
  3 17  1  0
  3 18  1  0
  4  5  1  0
  5  9  2  0
  5 15  1  0
  7 18  2  0
  7 11  1  0
  8 17  2  0
  9 12  1  0
 11 19  2  0
 12 13  2  0
 13 16  1  0
 13 14  1  0
 14 15  2  0
 16 17  1  0
 18 20  1  0
 19 21  1  0
 19 20  1  0
 21 23  1  0
 21 22  1  0
 22 23  1  0
M  END
$$$$
