4fkj_B_11K.pdb
     RDKit          3D

 26 29  0  0  0  0  0  0  0  0999 V2000
   34.2614    4.5835   19.3615 N   0  0  0  0  0  0  0  0  0  0  0  0
   35.0452    3.7645   18.8179 N   0  0  0  0  0  0  0  0  0  0  0  0
   35.9808    3.3244   16.7249 N   0  0  0  0  0  0  0  0  0  0  0  0
   44.3775    4.6201   11.8329 N   0  0  0  0  0  0  0  0  0  0  0  0
   35.5279    4.3380   14.7161 O   0  0  0  0  0  0  0  0  0  0  0  0
   39.2877    2.4989   15.1439 C   0  0  0  0  0  0  0  0  0  0  0  0
   38.4243    3.3806   13.0697 C   0  0  0  0  0  0  0  0  0  0  0  0
   40.5776    2.9000   14.8096 C   0  0  0  0  0  0  0  0  0  0  0  0
   39.7189    3.7664   12.7221 C   0  0  0  0  0  0  0  0  0  0  0  0
   34.5219    5.2285   17.2781 C   0  0  0  0  0  0  0  0  0  0  0  0
   46.6541    4.3002   11.2908 C   0  0  0  0  0  0  0  0  0  0  0  0
   45.9033    2.9964   10.9846 C   0  0  0  0  0  0  0  0  0  0  0  0
   41.9864    5.0946   12.3808 C   0  0  0  0  0  0  0  0  0  0  0  0
   31.8429    7.1024   17.9332 C   0  0  0  0  0  0  0  0  0  0  0  0
   33.0427    8.0140   18.2103 C   0  0  0  0  0  0  0  0  0  0  0  0
   45.5597    5.3645   11.3777 C   0  0  0  0  0  0  0  0  0  0  0  0
   44.4188    3.3753   11.0488 C   0  0  0  0  0  0  0  0  0  0  0  0
   43.1693    5.3710   11.4325 C   0  0  0  0  0  0  0  0  0  0  0  0
   36.8052    2.3196   14.6614 C   0  0  0  0  0  0  0  0  0  0  0  0
   42.0597    3.9030   13.2337 O   0  0  0  0  0  0  0  0  0  0  0  0
   36.0511    3.4431   15.3810 C   0  0  0  0  0  0  0  0  0  0  0  0
   38.2124    2.7599   14.2965 C   0  0  0  0  0  0  0  0  0  0  0  0
   40.7940    3.5259   13.5827 C   0  0  0  0  0  0  0  0  0  0  0  0
   35.2787    4.1364   17.5562 C   0  0  0  0  0  0  0  0  0  0  0  0
   33.9361    5.5214   18.4571 C   0  0  0  0  0  0  0  0  0  0  0  0
   32.9741    6.6494   18.8861 C   0  0  0  0  0  0  0  0  0  0  0  0
  1  2  1  0
  1 25  2  0
  2 24  2  0
  3 24  1  0
  3 21  1  0
  4 16  1  0
  4 17  1  0
  4 18  1  0
  5 21  2  0
  6  8  2  0
  6 22  1  0
  7  9  1  0
  7 22  2  0
  8 23  1  0
  9 23  2  0
 10 24  1  0
 10 25  1  0
 11 12  1  0
 11 16  1  0
 12 17  1  0
 13 18  1  0
 13 20  1  0
 14 26  1  0
 14 15  1  0
 15 26  1  0
 19 22  1  0
 19 21  1  0
 20 23  1  0
 25 26  1  0
M  END
$$$$
