4fko_B_20K.pdb
 OpenBabel04282118183D

 24 26  0  0  1  0  0  0  0  0999 V2000
   -0.4030   -7.8710   26.1380 S   0  0  0  0  0  0  0  0  0  0  0  0
   -6.3020   -9.4460   31.6250 Cl  0  0  0  0  0  0  0  0  0  0  0  0
    0.9760   -9.4080   24.2240 C   0  0  0  0  0  0  0  0  0  0  0  0
    1.8050   -7.2130   25.0040 N   0  0  0  0  0  0  0  0  0  0  0  0
    0.9050   -8.1540   25.0300 C   0  0  0  0  0  0  0  0  0  0  0  0
   -2.1040   -4.1070   29.1780 N   0  0  0  0  0  0  0  0  0  0  0  0
    1.5270   -6.1850   25.8890 C   0  0  0  0  0  0  0  0  0  0  0  0
   -3.3290   -5.9970   29.4940 N   0  0  0  0  0  0  0  0  0  0  0  0
    2.5200   -5.0840   26.0570 C   0  0  0  0  0  0  0  0  0  0  0  0
   -5.6780  -11.1570   29.1940 N   0  0  0  0  0  0  0  0  0  0  0  0
    0.3300   -6.3570   26.5900 C   0  0  0  0  0  0  0  0  0  0  0  0
   -1.4800   -6.1450   28.0870 N   0  0  0  0  0  0  0  0  0  0  0  0
   -0.4560   -5.5050   27.5020 C   0  0  2  0  0  0  0  0  0  0  0  0
   -0.1920   -4.1590   27.7170 C   0  0  0  0  0  0  0  0  0  0  0  0
   -1.0730   -3.5100   28.5630 C   0  0  0  0  0  0  0  0  0  0  0  0
   -2.2720   -5.4030   28.9000 C   0  0  0  0  0  0  0  0  0  0  0  0
   -3.8980   -7.2760   29.3520 C   0  0  0  0  0  0  0  0  0  0  0  0
   -3.5780   -8.1620   28.3290 C   0  0  0  0  0  0  0  0  0  0  0  0
   -4.1340   -9.4280   28.2940 C   0  0  0  0  0  0  0  0  0  0  0  0
   -5.0110   -9.8320   29.2890 C   0  0  0  0  0  0  0  0  0  0  0  0
   -4.9340  -12.1440   28.3600 C   0  0  0  0  0  0  0  0  0  0  0  0
   -7.1010  -11.0460   28.7600 C   0  0  0  0  0  0  0  0  0  0  0  0
   -5.3170   -8.9480   30.2980 C   0  0  0  0  0  0  0  0  0  0  0  0
   -4.8000   -7.6720   30.3310 C   0  0  0  0  0  0  0  0  0  0  0  0
  1  5  1  0  0  0  0
  1 11  1  0  0  0  0
  2 23  1  0  0  0  0
  3  5  1  0  0  0  0
  4  5  2  0  0  0  0
  4  7  1  0  0  0  0
  6 15  1  0  0  0  0
  6 16  2  0  0  0  0
  7  9  1  0  0  0  0
  7 11  2  0  0  0  0
  8 16  1  0  0  0  0
  8 17  1  0  0  0  0
 10 21  1  0  0  0  0
 10 22  1  0  0  0  0
 10 20  1  0  0  0  0
 12 13  2  0  0  0  0
 12 16  1  0  0  0  0
 13 11  1  6  0  0  0
 13 14  1  0  0  0  0
 14 15  2  0  0  0  0
 17 18  2  0  0  0  0
 17 24  1  0  0  0  0
 18 19  1  0  0  0  0
 19 20  2  0  0  0  0
 20 23  1  0  0  0  0
 23 24  2  0  0  0  0
M  END
$$$$
