4fko_B_20K.pdb
     RDKit          3D

 24 26  0  0  1  0  0  0  0  0999 V2000
   15.5918   22.2014  -11.5753 S   0  0  0  0  0  0  0  0  0  0  0  0
   21.1020   22.6619  -17.6426 Cl  0  0  0  0  0  0  0  0  0  0  0  0
   12.7831   22.3464  -11.4424 C   0  0  0  0  0  0  0  0  0  0  0  0
   14.2176   22.6260   -9.4480 N   0  0  0  0  0  0  0  0  0  0  0  0
   14.0901   22.3981  -10.7239 C   0  0  0  0  0  0  0  0  0  0  0  0
   20.5897   21.8154  -10.4916 N   0  0  0  0  0  0  0  0  0  0  0  0
   15.5415   22.6780   -9.0455 C   0  0  0  0  0  0  0  0  0  0  0  0
   20.2707   21.9119  -12.7414 N   0  0  0  0  0  0  0  0  0  0  0  0
   15.8565   23.0399   -7.6326 C   0  0  0  0  0  0  0  0  0  0  0  0
   18.1529   22.0324  -18.0076 N   0  0  0  0  0  0  0  0  0  0  0  0
   16.4516   22.4402  -10.0795 C   0  0  0  0  0  0  0  0  0  0  0  0
   18.4026   22.2076  -11.3838 N   0  0  0  0  0  0  0  0  0  0  0  0
   17.9125   22.2453  -10.1353 C   0  0  0  0  0  0  0  0  0  0  0  0
   18.7107   22.0811   -9.0112 C   0  0  0  0  0  0  0  0  0  0  0  0
   20.0511   21.8526   -9.2643 C   0  0  0  0  0  0  0  0  0  0  0  0
   19.7342   21.9811  -11.5044 C   0  0  0  0  0  0  0  0  0  0  0  0
   19.6924   21.9046  -14.0240 C   0  0  0  0  0  0  0  0  0  0  0  0
   18.3331   21.7359  -14.2649 C   0  0  0  0  0  0  0  0  0  0  0  0
   17.8321   21.8047  -15.5523 C   0  0  0  0  0  0  0  0  0  0  0  0
   18.6821   22.0548  -16.6188 C   0  0  0  0  0  0  0  0  0  0  0  0
   16.6889   22.3011  -18.0955 C   0  0  0  0  0  0  0  0  0  0  0  0
   18.5176   20.7812  -18.7336 C   0  0  0  0  0  0  0  0  0  0  0  0
   20.0243   22.2238  -16.3675 C   0  0  0  0  0  0  0  0  0  0  0  0
   20.5463   22.1249  -15.0970 C   0  0  0  0  0  0  0  0  0  0  0  0
  1  5  1  0
  1 11  1  0
  2 23  1  0
  3  5  1  0
  4  5  2  0
  4  7  1  0
  6 15  2  0
  6 16  1  0
  7  9  1  0
  7 11  2  0
  8 16  1  0
  8 17  1  0
 10 21  1  0
 10 22  1  0
 10 20  1  0
 12 13  1  0
 12 16  2  0
 13 11  1  0
 13 14  2  0
 14 15  1  0
 17 18  2  0
 17 24  1  0
 18 19  1  0
 19 20  2  0
 20 23  1  0
 23 24  2  0
M  END
$$$$
