4fkp_B_LS5.pdb
     RDKit          3D

 25 27  0  0  1  0  0  0  0  0999 V2000
    7.4293   -8.0647   26.8847 N   0  0  0  0  0  0  0  0  0  0  0  0
    6.7941   -9.2169   27.1262 C   0  0  0  0  0  0  0  0  0  0  0  0
    7.1230  -10.1684   26.1585 C   0  0  2  0  0  0  0  0  0  0  0  0
    8.6396   -9.9369   24.0755 C   0  0  0  0  0  0  0  0  0  0  0  0
    9.4421   -9.0187   23.3838 C   0  0  0  0  0  0  0  0  0  0  0  0
    9.6517   -7.7151   23.8788 C   0  0  0  0  0  0  0  0  0  0  0  0
    8.9628   -7.3064   25.0397 C   0  0  0  0  0  0  0  0  0  0  0  0
    8.1581   -8.2147   25.7320 C   0  0  0  0  0  0  0  0  0  0  0  0
    7.9582   -9.5127   25.2270 C   0  0  0  0  0  0  0  0  0  0  0  0
    6.0623   -9.4645   28.0947 O   0  0  0  0  0  0  0  0  0  0  0  0
    6.4885  -11.4112   26.0250 C   0  0  0  0  0  0  0  0  0  0  0  0
    5.5916  -11.8589   26.9212 N   0  0  0  0  0  0  0  0  0  0  0  0
    4.8801  -12.9945   26.7888 C   0  0  0  0  0  0  0  0  0  0  0  0
    4.6296  -13.5492   25.5158 C   0  0  0  0  0  0  0  0  0  0  0  0
    3.8679  -14.7286   25.4179 C   0  0  0  0  0  0  0  0  0  0  0  0
    3.3097  -15.3128   26.5614 C   0  0  0  0  0  0  0  0  0  0  0  0
    3.4996  -14.7430   27.8332 C   0  0  0  0  0  0  0  0  0  0  0  0
    4.2763  -13.5778   27.9123 C   0  0  0  0  0  0  0  0  0  0  0  0
    2.3237  -16.7169   26.3387 S   0  0  0  0  0  0  0  0  0  0  0  0
    1.8510  -17.1747   27.6884 O   0  0  0  0  0  0  0  0  0  0  0  0
    1.2133  -16.3168   25.4271 O   0  0  0  0  0  0  0  0  0  0  0  0
    3.3164  -17.7532   25.5980 N   0  0  0  0  0  0  0  0  0  0  0  0
    4.3775  -18.3063   26.2191 C   0  0  0  0  0  0  0  0  0  0  0  0
    5.2128  -19.0713   25.5256 N   0  0  0  0  0  0  0  0  0  0  0  0
    4.6045  -18.1460   27.5270 N   0  0  0  0  0  0  0  0  0  0  0  0
  1  2  1  0
  1  8  1  0
  2  3  1  0
  2 10  2  0
  3  9  1  0
  3 11  1  6
  4  5  1  0
  4  9  2  0
  5  6  2  0
  6  7  1  0
  7  8  2  0
  8  9  1  0
 11 12  2  0
 12 13  1  0
 13 14  2  0
 13 18  1  0
 14 15  1  0
 15 16  2  0
 16 17  1  0
 16 19  1  0
 17 18  2  0
 19 20  2  0
 19 21  2  0
 19 22  1  0
 22 23  2  0
 23 24  1  0
 23 25  1  0
M  END
$$$$
