4fkq_B_42K.pdb
     RDKit          3D

 25 28  0  0  1  0  0  0  0  0999 V2000
   16.7760   -8.5868   28.5622 N   0  0  0  0  0  0  0  0  0  0  0  0
   19.6149   -6.9243   24.2260 N   0  0  0  0  0  0  0  0  0  0  0  0
   19.7584   -8.0677   23.7456 N   0  0  0  0  0  0  0  0  0  0  0  0
   19.2030   -8.9613   24.4306 N   0  0  0  0  0  0  0  0  0  0  0  0
   17.5955  -11.3202   26.4912 N   0  0  0  0  0  0  0  0  0  0  0  0
   17.0376  -12.3517   26.9302 N   0  0  0  0  0  0  0  0  0  0  0  0
   17.6507  -17.4866   22.6868 N   0  0  0  0  0  0  0  0  0  0  0  0
   16.2161  -10.7674   28.9687 O   0  0  0  0  0  0  0  0  0  0  0  0
   17.2732  -18.6112   24.9895 O   0  0  0  0  0  0  0  0  0  0  0  0
   15.4061  -17.6867   23.7623 O   0  0  0  0  0  0  0  0  0  0  0  0
   17.4157  -13.5977   24.9113 C   0  0  0  0  0  0  0  0  0  0  0  0
   16.6100  -14.6931   26.9211 C   0  0  0  0  0  0  0  0  0  0  0  0
   17.3758  -14.8218   24.2311 C   0  0  0  0  0  0  0  0  0  0  0  0
   16.5737  -15.9155   26.2500 C   0  0  0  0  0  0  0  0  0  0  0  0
   18.5020   -6.1085   26.3255 C   0  0  0  0  0  0  0  0  0  0  0  0
   17.7650   -6.5728   27.4399 C   0  0  0  0  0  0  0  0  0  0  0  0
   17.0627  -13.5362   26.2720 C   0  0  0  0  0  0  0  0  0  0  0  0
   16.9514  -15.9701   24.9056 C   0  0  0  0  0  0  0  0  0  0  0  0
   16.8192   -9.8987   28.3123 C   0  0  0  0  0  0  0  0  0  0  0  0
   17.5262  -10.1247   27.1325 C   0  0  0  0  0  0  0  0  0  0  0  0
   18.9597   -7.0383   25.3943 C   0  0  1  0  0  0  0  0  0  0  0  0
   17.4853   -7.9444   27.6093 C   0  0  0  0  0  0  0  0  0  0  0  0
   18.6324   -8.3942   25.5155 C   0  0  0  0  0  0  0  0  0  0  0  0
   17.9456   -8.8714   26.6593 C   0  0  0  0  0  0  0  0  0  0  0  0
   16.8398  -17.5050   24.0883 S   0  0  0  0  0  0  0  0  0  0  0  0
  1 19  1  0
  1 22  1  0
  2  3  2  0
  2 21  1  0
  3  4  1  0
  4 23  2  0
  5  6  1  0
  5 20  2  0
  6 17  1  0
  7 25  1  0
  8 19  2  0
  9 25  2  0
 10 25  2  0
 11 13  2  0
 11 17  1  0
 12 14  1  0
 12 17  2  0
 13 18  1  0
 14 18  2  0
 15 16  2  0
 16 22  1  0
 18 25  1  0
 19 20  1  0
 20 24  1  0
 21 15  1  6
 21 23  1  0
 22 24  2  0
 23 24  1  0
M  END
$$$$
