4fku_D_60K.pdb
     RDKit          3D

 18 20  0  0  0  0  0  0  0  0999 V2000
   -5.2430  -10.1010   28.7100 C   0  0  0  0  0  0  0  0  0  0  0  0
   -5.3490   -9.1920   29.7430 C   0  0  0  0  0  0  0  0  0  0  0  0
   -2.5430   -6.9730   29.0430 N   0  0  0  0  0  0  0  0  0  0  0  0
   -4.4530   -8.1530   29.8290 C   0  0  0  0  0  0  0  0  0  0  0  0
   -1.4210   -6.8820   28.2420 N   0  0  0  0  0  0  0  0  0  0  0  0
   -1.9200   -4.4840   29.9930 O   0  0  0  0  0  0  0  0  0  0  0  0
   -3.4520   -8.0060   28.8830 C   0  0  0  0  0  0  0  0  0  0  0  0
   -0.0690   -3.6730   28.8370 N   0  0  0  0  0  0  0  0  0  0  0  0
   -0.7240   -5.8010   28.3230 C   0  0  0  0  0  0  0  0  0  0  0  0
   -1.0070   -4.5990   29.1690 C   0  0  0  0  0  0  0  0  0  0  0  0
    0.8260   -4.1650   27.8840 C   0  0  0  0  0  0  0  0  0  0  0  0
    1.9090   -3.5320   27.2870 C   0  0  0  0  0  0  0  0  0  0  0  0
    2.6710   -4.2510   26.3810 C   0  0  0  0  0  0  0  0  0  0  0  0
    2.3620   -5.5700   26.0520 C   0  0  0  0  0  0  0  0  0  0  0  0
    1.2530   -6.1870   26.6340 C   0  0  0  0  0  0  0  0  0  0  0  0
    0.4720   -5.4870   27.5560 C   0  0  0  0  0  0  0  0  0  0  0  0
   -3.3370   -8.9390   27.8610 C   0  0  0  0  0  0  0  0  0  0  0  0
   -4.2180   -9.9990   27.7840 C   0  0  0  0  0  0  0  0  0  0  0  0
  1  2  2  0
  1 18  1  0
  2  4  1  0
  3  7  1  0
  3  5  1  0
  4  7  2  0
  5  9  2  0
  6 10  2  0
  7 17  1  0
  8 10  1  0
  8 11  1  0
  9 16  1  0
  9 10  1  0
 11 16  2  0
 11 12  1  0
 12 13  2  0
 13 14  1  0
 14 15  2  0
 15 16  1  0
 17 18  2  0
M  END
$$$$
