4fkv_B_61K.pdb
     RDKit          3D

 28 31  0  0  0  0  0  0  0  0999 V2000
    0.1040  -11.7670   25.4810 N   0  0  0  0  0  0  0  0  0  0  0  0
    1.4370  -11.9990   23.8080 N   0  0  0  0  0  0  0  0  0  0  0  0
    2.4100   -8.0860   24.6750 N   0  0  0  0  0  0  0  0  0  0  0  0
   -0.0880   -3.8990   28.7750 N   0  0  0  0  0  0  0  0  0  0  0  0
   -1.6440   -7.0440   28.4880 N   0  0  0  0  0  0  0  0  0  0  0  0
   -2.7060   -7.0630   29.1480 N   0  0  0  0  0  0  0  0  0  0  0  0
    4.1570   -6.6600   24.9190 O   0  0  0  0  0  0  0  0  0  0  0  0
   -1.9200   -4.5540   29.9590 O   0  0  0  0  0  0  0  0  0  0  0  0
   -3.5920   -8.9340   27.9730 C   0  0  0  0  0  0  0  0  0  0  0  0
   -4.6010   -8.1960   30.0410 C   0  0  0  0  0  0  0  0  0  0  0  0
   -4.5600   -9.9310   27.8470 C   0  0  0  0  0  0  0  0  0  0  0  0
   -5.5650   -9.2120   29.9400 C   0  0  0  0  0  0  0  0  0  0  0  0
    2.5610   -4.8190   26.3180 C   0  0  0  0  0  0  0  0  0  0  0  0
    1.8620   -4.0160   27.2260 C   0  0  0  0  0  0  0  0  0  0  0  0
    0.2850  -12.4120   24.3310 C   0  0  0  0  0  0  0  0  0  0  0  0
    1.1500  -10.9630   25.6750 C   0  0  0  0  0  0  0  0  0  0  0  0
    0.9920   -6.6270   26.7420 C   0  0  0  0  0  0  0  0  0  0  0  0
    3.1170   -9.0130   23.7620 C   0  0  0  0  0  0  0  0  0  0  0  0
    3.3020  -10.3740   24.4430 C   0  0  0  0  0  0  0  0  0  0  0  0
    2.9830   -6.9790   25.1360 C   0  0  0  0  0  0  0  0  0  0  0  0
   -3.5970   -8.0690   29.0770 C   0  0  0  0  0  0  0  0  0  0  0  0
    2.1440   -6.1330   26.1020 C   0  0  0  0  0  0  0  0  0  0  0  0
    1.9710  -11.1000   24.6380 C   0  0  0  0  0  0  0  0  0  0  0  0
   -5.5360  -10.0670   28.8360 C   0  0  0  0  0  0  0  0  0  0  0  0
   -1.0100   -4.7850   29.1550 C   0  0  0  0  0  0  0  0  0  0  0  0
   -0.7950   -6.0010   28.5010 C   0  0  0  0  0  0  0  0  0  0  0  0
    0.7190   -4.4930   27.8700 C   0  0  0  0  0  0  0  0  0  0  0  0
    0.2740   -5.7960   27.6230 C   0  0  0  0  0  0  0  0  0  0  0  0
  1 16  2  0
  1 15  1  0
  2 23  2  0
  2 15  1  0
  3 20  1  0
  3 18  1  0
  4 27  1  0
  4 25  1  0
  5 26  2  0
  5  6  1  0
  6 21  1  0
  7 20  2  0
  8 25  2  0
  9 21  2  0
  9 11  1  0
 10 21  1  0
 10 12  2  0
 11 24  2  0
 12 24  1  0
 13 14  1  0
 13 22  2  0
 14 27  2  0
 16 23  1  0
 17 28  2  0
 17 22  1  0
 18 19  1  0
 19 23  1  0
 20 22  1  0
 25 26  1  0
 26 28  1  0
 27 28  1  0
M  END
$$$$
