4fkv_B_61K.pdb
     RDKit          3D

 32 35  0  0  0  0  0  0  0  0999 V2000
   12.8368   28.7464   -7.8263 N   0  0  0  0  0  0  0  0  0  0  0  0
   20.3811   27.9665   -7.9685 S   0  0  0  0  0  0  0  0  0  0  0  0
   10.8235   27.9959   -7.7116 N   0  0  0  0  0  0  0  0  0  0  0  0
   10.8269   29.9556   -4.0826 N   0  0  0  0  0  0  0  0  0  0  0  0
   15.4690   32.8696   -0.8361 N   0  0  0  0  0  0  0  0  0  0  0  0
   16.3366   31.2362   -3.8317 N   0  0  0  0  0  0  0  0  0  0  0  0
   19.3409   27.2860   -9.0241 N   0  0  0  0  0  0  0  0  0  0  0  0
   17.5784   31.2341   -3.9792 N   0  0  0  0  0  0  0  0  0  0  0  0
    9.6002   31.3303   -2.7595 O   0  0  0  0  0  0  0  0  0  0  0  0
   17.5713   32.7876   -1.7082 O   0  0  0  0  0  0  0  0  0  0  0  0
   21.3957   28.8281   -8.6489 O   0  0  0  0  0  0  0  0  0  0  0  0
   21.0875   26.9188   -7.1737 O   0  0  0  0  0  0  0  0  0  0  0  0
   17.5507   29.4444   -5.5484 C   0  0  0  0  0  0  0  0  0  0  0  0
   19.5385   30.7870   -5.2560 C   0  0  0  0  0  0  0  0  0  0  0  0
   18.2141   28.6517   -6.4856 C   0  0  0  0  0  0  0  0  0  0  0  0
   20.2093   30.0137   -6.2171 C   0  0  0  0  0  0  0  0  0  0  0  0
   11.8621   32.0169   -1.2410 C   0  0  0  0  0  0  0  0  0  0  0  0
   13.0024   32.5636   -0.6419 C   0  0  0  0  0  0  0  0  0  0  0  0
   12.0329   27.7591   -8.2141 C   0  0  0  0  0  0  0  0  0  0  0  0
   12.1217   29.6001   -7.0929 C   0  0  0  0  0  0  0  0  0  0  0  0
   13.2370   31.2206   -3.0811 C   0  0  0  0  0  0  0  0  0  0  0  0
    9.6647   29.3857   -4.8019 C   0  0  0  0  0  0  0  0  0  0  0  0
    9.7145   29.7954   -6.2784 C   0  0  0  0  0  0  0  0  0  0  0  0
   10.6826   30.8442   -3.1049 C   0  0  0  0  0  0  0  0  0  0  0  0
   18.2029   30.5255   -4.9377 C   0  0  0  0  0  0  0  0  0  0  0  0
   11.9764   31.3749   -2.4747 C   0  0  0  0  0  0  0  0  0  0  0  0
   10.8789   29.1335   -7.0151 C   0  0  0  0  0  0  0  0  0  0  0  0
   19.5375   28.9469   -6.8183 C   0  0  0  0  0  0  0  0  0  0  0  0
   16.3612   32.5440   -1.7728 C   0  0  0  0  0  0  0  0  0  0  0  0
   15.7222   31.8816   -2.8243 C   0  0  0  0  0  0  0  0  0  0  0  0
   14.2590   32.4205   -1.2327 C   0  0  0  0  0  0  0  0  0  0  0  0
   14.3826   31.7401   -2.4487 C   0  0  0  0  0  0  0  0  0  0  0  0
  1 20  2  0
  1 19  1  0
  2 28  1  0
  2 12  2  0
  2 11  2  0
  2  7  1  0
  3 27  2  0
  3 19  1  0
  4 24  1  0
  4 22  1  0
  5 31  1  0
  5 29  1  0
  6 30  2  0
  6  8  1  0
  8 25  1  0
  9 24  2  0
 10 29  2  0
 13 25  2  0
 13 15  1  0
 14 25  1  0
 14 16  2  0
 15 28  2  0
 16 28  1  0
 17 18  1  0
 17 26  2  0
 18 31  2  0
 20 27  1  0
 21 32  2  0
 21 26  1  0
 22 23  1  0
 23 27  1  0
 24 26  1  0
 29 30  1  0
 30 32  1  0
 31 32  1  0
M  END
$$$$
