4fkw_B_62K.pdb
 OpenBabel04282118253D

 29 31  0  0  0  0  0  0  0  0999 V2000
   -1.5820   -6.9260   28.4110 N   0  0  0  0  0  0  0  0  0  0  0  0
   -6.7120  -11.2420   28.6680 S   0  0  0  0  0  0  0  0  0  0  0  0
   -2.6560   -6.9800   29.0610 N   0  0  0  0  0  0  0  0  0  0  0  0
   -6.1850  -12.4660   27.7570 N   0  0  0  0  0  0  0  0  0  0  0  0
   -0.0830   -3.7430   28.7230 N   0  0  0  0  0  0  0  0  0  0  0  0
    1.1040   -9.9370   23.3370 C   0  0  0  0  0  0  0  0  0  0  0  0
    2.2380  -10.8690   25.3740 C   0  0  0  0  0  0  0  0  0  0  0  0
    4.1520   -6.4610   24.7400 O   0  0  0  0  0  0  0  0  0  0  0  0
   -1.9380   -4.4550   29.8600 O   0  0  0  0  0  0  0  0  0  0  0  0
   -7.1180  -11.7210   30.0170 O   0  0  0  0  0  0  0  0  0  0  0  0
   -7.8790  -10.5990   28.0370 O   0  0  0  0  0  0  0  0  0  0  0  0
   -4.5400   -8.1050   29.9590 C   0  0  0  0  0  0  0  0  0  0  0  0
   -3.5360   -8.8880   27.9120 C   0  0  0  0  0  0  0  0  0  0  0  0
   -5.5000   -9.1320   29.8840 C   0  0  0  0  0  0  0  0  0  0  0  0
   -4.4820   -9.9120   27.8260 C   0  0  0  0  0  0  0  0  0  0  0  0
    2.6520   -4.5890   26.3260 C   0  0  0  0  0  0  0  0  0  0  0  0
    1.9370   -3.8050   27.2430 C   0  0  0  0  0  0  0  0  0  0  0  0
    1.0920   -6.4340   26.7170 C   0  0  0  0  0  0  0  0  0  0  0  0
    3.3280   -8.9800   24.1180 C   0  0  0  0  0  0  0  0  0  0  0  0
    2.5680   -8.0650   24.9600 O   0  0  0  0  0  0  0  0  0  0  0  0
    3.0600   -6.8220   25.1790 C   0  0  0  0  0  0  0  0  0  0  0  0
   -3.5190   -8.0160   29.0200 C   0  0  0  0  0  0  0  0  0  0  0  0
    2.2450   -5.9150   26.1040 C   0  0  0  0  0  0  0  0  0  0  0  0
   -5.4680  -10.0260   28.8090 C   0  0  0  0  0  0  0  0  0  0  0  0
   -0.9950   -4.6550   29.0890 C   0  0  0  0  0  0  0  0  0  0  0  0
   -0.7720   -5.8460   28.4050 C   0  0  0  0  0  0  0  0  0  0  0  0
    0.7790   -4.3180   27.8560 C   0  0  0  0  0  0  0  0  0  0  0  0
    0.3530   -5.6220   27.5950 C   0  0  0  0  0  0  0  0  0  0  0  0
    2.4660  -10.2480   23.9990 C   0  0  0  0  0  0  0  0  0  0  0  0
  1 26  2  0  0  0  0
  1  3  1  0  0  0  0
  2 24  1  0  0  0  0
  2 11  2  0  0  0  0
  2 10  2  0  0  0  0
  2  4  1  0  0  0  0
  3 22  1  0  0  0  0
  5 27  1  0  0  0  0
  5 25  1  0  0  0  0
  6 29  1  0  0  0  0
  7 29  1  0  0  0  0
  8 21  2  0  0  0  0
  9 25  2  0  0  0  0
 12 22  2  0  0  0  0
 12 14  1  0  0  0  0
 13 22  1  0  0  0  0
 13 15  2  0  0  0  0
 14 24  2  0  0  0  0
 15 24  1  0  0  0  0
 16 17  2  0  0  0  0
 16 23  1  0  0  0  0
 17 27  1  0  0  0  0
 18 28  1  0  0  0  0
 18 23  2  0  0  0  0
 19 20  1  0  0  0  0
 19 29  1  0  0  0  0
 20 21  1  0  0  0  0
 21 23  1  0  0  0  0
 25 26  1  0  0  0  0
 26 28  1  0  0  0  0
 27 28  2  0  0  0  0
M  END
$$$$
