4fkw_B_62K.pdb
     RDKit          3D

 29 31  0  0  0  0  0  0  0  0999 V2000
    9.9866   -9.8086   28.1225 N   0  0  0  0  0  0  0  0  0  0  0  0
    5.1311  -14.4299   27.8428 S   0  0  0  0  0  0  0  0  0  0  0  0
    9.0207  -10.1174   28.8645 N   0  0  0  0  0  0  0  0  0  0  0  0
    5.5718  -15.3235   26.5727 N   0  0  0  0  0  0  0  0  0  0  0  0
   11.3813   -6.7136   29.0982 N   0  0  0  0  0  0  0  0  0  0  0  0
   12.0363  -11.1471   22.1197 C   0  0  0  0  0  0  0  0  0  0  0  0
   13.4897  -12.4924   23.6629 C   0  0  0  0  0  0  0  0  0  0  0  0
   15.1075   -7.9369   24.0182 O   0  0  0  0  0  0  0  0  0  0  0  0
    9.7407   -7.8454   30.2244 O   0  0  0  0  0  0  0  0  0  0  0  0
    4.9440  -15.2794   29.0500 O   0  0  0  0  0  0  0  0  0  0  0  0
    3.8597  -13.7371   27.5655 O   0  0  0  0  0  0  0  0  0  0  0  0
    7.3341  -11.5851   29.6536 C   0  0  0  0  0  0  0  0  0  0  0  0
    8.0644  -11.7165   27.3600 C   0  0  0  0  0  0  0  0  0  0  0  0
    6.4169  -12.6282   29.4240 C   0  0  0  0  0  0  0  0  0  0  0  0
    7.1593  -12.7526   27.1189 C   0  0  0  0  0  0  0  0  0  0  0  0
   13.7751   -6.6761   26.2330 C   0  0  0  0  0  0  0  0  0  0  0  0
   13.1677   -6.2218   27.4126 C   0  0  0  0  0  0  0  0  0  0  0  0
   12.3658   -8.6761   26.3008 C   0  0  0  0  0  0  0  0  0  0  0  0
   14.3079  -10.2584   22.8423 C   0  0  0  0  0  0  0  0  0  0  0  0
   13.6398   -9.6619   23.9919 O   0  0  0  0  0  0  0  0  0  0  0  0
   14.1061   -8.4864   24.4774 C   0  0  0  0  0  0  0  0  0  0  0  0
    8.2046  -11.1704   28.6524 C   0  0  0  0  0  0  0  0  0  0  0  0
   13.3959   -7.9239   25.7110 C   0  0  0  0  0  0  0  0  0  0  0  0
    6.3308  -13.2003   28.1508 C   0  0  0  0  0  0  0  0  0  0  0  0
   10.5702   -7.7591   29.3144 C   0  0  0  0  0  0  0  0  0  0  0  0
   10.7417   -8.7050   28.3085 C   0  0  0  0  0  0  0  0  0  0  0  0
   12.1325   -6.9686   28.0046 C   0  0  0  0  0  0  0  0  0  0  0  0
   11.7279   -8.1865   27.4539 C   0  0  0  0  0  0  0  0  0  0  0  0
   13.4912  -11.5136   22.4924 C   0  0  0  0  0  0  0  0  0  0  0  0
  1 26  2  0
  1  3  1  0
  2 24  1  0
  2 11  2  0
  2 10  2  0
  2  4  1  0
  3 22  1  0
  5 27  1  0
  5 25  1  0
  6 29  1  0
  7 29  1  0
  8 21  2  0
  9 25  2  0
 12 22  2  0
 12 14  1  0
 13 22  1  0
 13 15  2  0
 14 24  2  0
 15 24  1  0
 16 17  1  0
 16 23  2  0
 17 27  2  0
 18 28  2  0
 18 23  1  0
 19 20  1  0
 19 29  1  0
 20 21  1  0
 21 23  1  0
 25 26  1  0
 26 28  1  0
 27 28  1  0
M  END
$$$$
