4fkw_B_62K.pdb
     RDKit          3D

 29 31  0  0  0  0  0  0  0  0999 V2000
    4.9684  -12.9541   26.2168 N   0  0  0  0  0  0  0  0  0  0  0  0
    0.1129  -17.5754   25.9371 S   0  0  0  0  0  0  0  0  0  0  0  0
    4.0024  -13.2629   26.9588 N   0  0  0  0  0  0  0  0  0  0  0  0
    0.5536  -18.4690   24.6670 N   0  0  0  0  0  0  0  0  0  0  0  0
    6.3630   -9.8591   27.1925 N   0  0  0  0  0  0  0  0  0  0  0  0
    7.0181  -14.2926   20.2140 C   0  0  0  0  0  0  0  0  0  0  0  0
    8.4715  -15.6380   21.7572 C   0  0  0  0  0  0  0  0  0  0  0  0
   10.0892  -11.0825   22.1125 O   0  0  0  0  0  0  0  0  0  0  0  0
    4.7225  -10.9910   28.3187 O   0  0  0  0  0  0  0  0  0  0  0  0
   -0.0742  -18.4250   27.1444 O   0  0  0  0  0  0  0  0  0  0  0  0
   -1.1586  -16.8826   25.6599 O   0  0  0  0  0  0  0  0  0  0  0  0
    2.3159  -14.7307   27.7479 C   0  0  0  0  0  0  0  0  0  0  0  0
    3.0462  -14.8620   25.4543 C   0  0  0  0  0  0  0  0  0  0  0  0
    1.3987  -15.7737   27.5183 C   0  0  0  0  0  0  0  0  0  0  0  0
    2.1410  -15.8981   25.2132 C   0  0  0  0  0  0  0  0  0  0  0  0
    8.7569   -9.8216   24.3273 C   0  0  0  0  0  0  0  0  0  0  0  0
    8.1495   -9.3674   25.5069 C   0  0  0  0  0  0  0  0  0  0  0  0
    7.3476  -11.8216   24.3951 C   0  0  0  0  0  0  0  0  0  0  0  0
    9.2897  -13.4039   20.9366 C   0  0  0  0  0  0  0  0  0  0  0  0
    8.6215  -12.8074   22.0862 O   0  0  0  0  0  0  0  0  0  0  0  0
    9.0878  -11.6319   22.5717 C   0  0  0  0  0  0  0  0  0  0  0  0
    3.1864  -14.3159   26.7468 C   0  0  0  0  0  0  0  0  0  0  0  0
    8.3776  -11.0694   23.8053 C   0  0  0  0  0  0  0  0  0  0  0  0
    1.3126  -16.3458   26.2451 C   0  0  0  0  0  0  0  0  0  0  0  0
    5.5520  -10.9046   27.4087 C   0  0  0  0  0  0  0  0  0  0  0  0
    5.7234  -11.8506   26.4028 C   0  0  0  0  0  0  0  0  0  0  0  0
    7.1143  -10.1142   26.0989 C   0  0  0  0  0  0  0  0  0  0  0  0
    6.7097  -11.3320   25.5482 C   0  0  0  0  0  0  0  0  0  0  0  0
    8.4730  -14.6591   20.5867 C   0  0  0  0  0  0  0  0  0  0  0  0
  1 26  2  0
  1  3  1  0
  2 24  1  0
  2 11  2  0
  2 10  2  0
  2  4  1  0
  3 22  1  0
  5 27  1  0
  5 25  1  0
  6 29  1  0
  7 29  1  0
  8 21  2  0
  9 25  2  0
 12 22  2  0
 12 14  1  0
 13 22  1  0
 13 15  2  0
 14 24  2  0
 15 24  1  0
 16 17  1  0
 16 23  2  0
 17 27  2  0
 18 28  2  0
 18 23  1  0
 19 20  1  0
 19 29  1  0
 20 21  1  0
 21 23  1  0
 25 26  1  0
 26 28  1  0
 27 28  1  0
M  END
$$$$
