3sw4_B_18K.pdb
     RDKit          3D

 23 25  0  0  0  0  0  0  0  0999 V2000
   18.6732   22.2307  -12.0128 S   0  0  0  0  0  0  0  0  0  0  0  0
   22.7146   22.5696  -12.1786 C   0  0  0  0  0  0  0  0  0  0  0  0
   20.7898   21.5130  -13.3186 N   0  0  0  0  0  0  0  0  0  0  0  0
   21.2490   22.3187  -12.2933 C   0  0  0  0  0  0  0  0  0  0  0  0
   18.8015   20.5698  -14.1222 N   0  0  0  0  0  0  0  0  0  0  0  0
   19.4850   21.3671  -13.2893 C   0  0  0  0  0  0  0  0  0  0  0  0
   19.9177   25.2356   -8.0407 N   0  0  0  0  0  0  0  0  0  0  0  0
   20.2323   22.8079  -11.4566 C   0  0  0  0  0  0  0  0  0  0  0  0
   17.6922   24.7388   -8.0217 N   0  0  0  0  0  0  0  0  0  0  0  0
   20.2200   23.6767  -10.2672 C   0  0  0  0  0  0  0  0  0  0  0  0
   12.3968   23.0271   -9.0758 N   0  0  0  0  0  0  0  0  0  0  0  0
   21.3459   24.3070   -9.7527 C   0  0  0  0  0  0  0  0  0  0  0  0
   19.0058   23.7940   -9.7092 N   0  0  0  0  0  0  0  0  0  0  0  0
   21.1185   25.0762   -8.6231 C   0  0  0  0  0  0  0  0  0  0  0  0
   18.9012   24.5834   -8.6184 C   0  0  0  0  0  0  0  0  0  0  0  0
   16.3827   24.3038   -8.3067 C   0  0  0  0  0  0  0  0  0  0  0  0
   15.4068   24.4084   -7.3175 C   0  0  0  0  0  0  0  0  0  0  0  0
   14.1200   23.9522   -7.5511 C   0  0  0  0  0  0  0  0  0  0  0  0
   13.8019   23.4058   -8.7911 C   0  0  0  0  0  0  0  0  0  0  0  0
   11.5239   24.2165   -9.3140 C   0  0  0  0  0  0  0  0  0  0  0  0
   12.2544   22.0214  -10.1691 C   0  0  0  0  0  0  0  0  0  0  0  0
   14.7767   23.2841   -9.7851 C   0  0  0  0  0  0  0  0  0  0  0  0
   16.0610   23.7351   -9.5344 C   0  0  0  0  0  0  0  0  0  0  0  0
  1  8  1  0
  1  6  1  0
  2  4  1  0
  3  4  1  0
  3  6  2  0
  4  8  2  0
  5  6  1  0
  7 14  2  0
  7 15  1  0
  8 10  1  0
  9 15  1  0
  9 16  1  0
 10 12  2  0
 10 13  1  0
 11 19  1  0
 11 20  1  0
 11 21  1  0
 12 14  1  0
 13 15  2  0
 16 17  2  0
 16 23  1  0
 17 18  1  0
 18 19  2  0
 19 22  1  0
 22 23  2  0
M  END
$$$$
