3sw4_B_18K.pdb
     RDKit          3D

 23 25  0  0  0  0  0  0  0  0999 V2000
   18.6829   23.0029  -11.2467 S   0  0  0  0  0  0  0  0  0  0  0  0
   22.3250   24.1818   -9.8976 C   0  0  0  0  0  0  0  0  0  0  0  0
   21.2220   22.9655  -11.7482 N   0  0  0  0  0  0  0  0  0  0  0  0
   21.0947   23.6607  -10.5601 C   0  0  0  0  0  0  0  0  0  0  0  0
   19.9206   21.7881  -13.3002 N   0  0  0  0  0  0  0  0  0  0  0  0
   20.0633   22.5538  -12.2094 C   0  0  0  0  0  0  0  0  0  0  0  0
   17.7332   25.4751   -6.8486 N   0  0  0  0  0  0  0  0  0  0  0  0
   19.7688   23.7822  -10.1123 C   0  0  0  0  0  0  0  0  0  0  0  0
   15.8297   24.5392   -7.6857 N   0  0  0  0  0  0  0  0  0  0  0  0
   19.1425   24.4141   -8.9384 C   0  0  0  0  0  0  0  0  0  0  0  0
   11.8001   21.9897  -10.7424 N   0  0  0  0  0  0  0  0  0  0  0  0
   19.8355   25.1634   -7.9961 C   0  0  0  0  0  0  0  0  0  0  0  0
   17.8236   24.1844   -8.8536 N   0  0  0  0  0  0  0  0  0  0  0  0
   19.0587   25.6657   -6.9647 C   0  0  0  0  0  0  0  0  0  0  0  0
   17.1663   24.7378   -7.8117 C   0  0  0  0  0  0  0  0  0  0  0  0
   14.8442   23.9016   -8.4651 C   0  0  0  0  0  0  0  0  0  0  0  0
   13.6013   23.6347   -7.8948 C   0  0  0  0  0  0  0  0  0  0  0  0
   12.6246   22.9725   -8.6201 C   0  0  0  0  0  0  0  0  0  0  0  0
   12.8866   22.5925   -9.9333 C   0  0  0  0  0  0  0  0  0  0  0  0
   10.7876   22.9990  -11.1779 C   0  0  0  0  0  0  0  0  0  0  0  0
   12.2882   21.1779  -11.8957 C   0  0  0  0  0  0  0  0  0  0  0  0
   14.1346   22.8437  -10.5101 C   0  0  0  0  0  0  0  0  0  0  0  0
   15.1045   23.4975   -9.7701 C   0  0  0  0  0  0  0  0  0  0  0  0
  1  8  1  0
  1  6  1  0
  2  4  1  0
  3  4  1  0
  3  6  2  0
  4  8  2  0
  5  6  1  0
  7 14  2  0
  7 15  1  0
  8 10  1  0
  9 15  1  0
  9 16  1  0
 10 12  2  0
 10 13  1  0
 11 19  1  0
 11 20  1  0
 11 21  1  0
 12 14  1  0
 13 15  2  0
 16 17  2  0
 16 23  1  0
 17 18  1  0
 18 19  2  0
 19 22  1  0
 22 23  2  0
M  END
$$$$
