4fko_B_20K.pdb
     RDKit          3D

 24 26  0  0  1  0  0  0  0  0999 V2000
   18.4788   20.7222  -11.1393 S   0  0  0  0  0  0  0  0  0  0  0  0
   14.7437   19.3930  -18.3274 Cl  0  0  0  0  0  0  0  0  0  0  0  0
   21.1475   20.6080  -10.2489 C   0  0  0  0  0  0  0  0  0  0  0  0
   19.2309   20.6060   -8.6868 N   0  0  0  0  0  0  0  0  0  0  0  0
   19.6966   20.6529   -9.9021 C   0  0  0  0  0  0  0  0  0  0  0  0
   13.3876   21.2376  -11.4809 N   0  0  0  0  0  0  0  0  0  0  0  0
   17.8468   20.6060   -8.6460 C   0  0  0  0  0  0  0  0  0  0  0  0
   14.2830   20.8272  -13.5309 N   0  0  0  0  0  0  0  0  0  0  0  0
   17.1598   20.4449   -7.3313 C   0  0  0  0  0  0  0  0  0  0  0  0
   17.7045   19.9762  -17.9809 N   0  0  0  0  0  0  0  0  0  0  0  0
   17.2488   20.6927   -9.9065 C   0  0  0  0  0  0  0  0  0  0  0  0
   15.7178   20.7323  -11.6999 N   0  0  0  0  0  0  0  0  0  0  0  0
   15.8612   20.8723  -10.3732 C   0  0  0  0  0  0  0  0  0  0  0  0
   14.8018   21.1897   -9.5339 C   0  0  0  0  0  0  0  0  0  0  0  0
   13.5834   21.3752  -10.1617 C   0  0  0  0  0  0  0  0  0  0  0  0
   14.4731   20.9345  -12.1985 C   0  0  0  0  0  0  0  0  0  0  0  0
   15.1779   20.6565  -14.6032 C   0  0  0  0  0  0  0  0  0  0  0  0
   16.5575   20.7948  -14.4963 C   0  0  0  0  0  0  0  0  0  0  0  0
   17.3765   20.5478  -15.5831 C   0  0  0  0  0  0  0  0  0  0  0  0
   16.8286   20.1471  -16.7921 C   0  0  0  0  0  0  0  0  0  0  0  0
   19.1304   19.7035  -17.6404 C   0  0  0  0  0  0  0  0  0  0  0  0
   17.5856   21.1116  -18.9412 C   0  0  0  0  0  0  0  0  0  0  0  0
   15.4627   20.0100  -16.8846 C   0  0  0  0  0  0  0  0  0  0  0  0
   14.6289   20.2844  -15.8234 C   0  0  0  0  0  0  0  0  0  0  0  0
  1  5  1  0
  1 11  1  0
  2 23  1  0
  3  5  1  0
  4  5  2  0
  4  7  1  0
  6 15  2  0
  6 16  1  0
  7  9  1  0
  7 11  2  0
  8 16  1  0
  8 17  1  0
 10 21  1  0
 10 22  1  0
 10 20  1  0
 12 13  1  0
 12 16  2  0
 13 11  1  0
 13 14  2  0
 14 15  1  0
 17 18  2  0
 17 24  1  0
 18 19  1  0
 19 20  2  0
 20 23  1  0
 23 24  2  0
M  END
$$$$
