4fko_B_20K.pdb
     RDKit          3D

 24 26  0  0  1  0  0  0  0  0999 V2000
   16.3650   20.8985  -15.7245 S   0  0  0  0  0  0  0  0  0  0  0  0
   14.0410   20.1391   -7.8882 Cl  0  0  0  0  0  0  0  0  0  0  0  0
   15.0028   21.0292  -18.1852 C   0  0  0  0  0  0  0  0  0  0  0  0
   17.4192   20.5265  -18.0363 N   0  0  0  0  0  0  0  0  0  0  0  0
   16.2891   20.8180  -17.4584 C   0  0  0  0  0  0  0  0  0  0  0  0
   19.9214   20.7391  -12.0327 N   0  0  0  0  0  0  0  0  0  0  0  0
   18.4458   20.3262  -17.1290 C   0  0  0  0  0  0  0  0  0  0  0  0
   17.8361   20.7671  -11.1251 N   0  0  0  0  0  0  0  0  0  0  0  0
   19.7781   19.8771  -17.6285 C   0  0  0  0  0  0  0  0  0  0  0  0
   12.2504   21.0743  -10.1567 N   0  0  0  0  0  0  0  0  0  0  0  0
   18.0622   20.5141  -15.7980 C   0  0  0  0  0  0  0  0  0  0  0  0
   17.9907   20.6040  -13.4424 N   0  0  0  0  0  0  0  0  0  0  0  0
   18.7925   20.5644  -14.5175 C   0  0  0  0  0  0  0  0  0  0  0  0
   20.1771   20.6019  -14.4220 C   0  0  0  0  0  0  0  0  0  0  0  0
   20.6800   20.7056  -13.1377 C   0  0  0  0  0  0  0  0  0  0  0  0
   18.6013   20.7012  -12.2356 C   0  0  0  0  0  0  0  0  0  0  0  0
   16.4463   20.8846  -10.9400 C   0  0  0  0  0  0  0  0  0  0  0  0
   15.5487   21.1978  -11.9549 C   0  0  0  0  0  0  0  0  0  0  0  0
   14.1885   21.2322  -11.7065 C   0  0  0  0  0  0  0  0  0  0  0  0
   13.7035   20.9423  -10.4404 C   0  0  0  0  0  0  0  0  0  0  0  0
   11.3901   20.9569  -11.3688 C   0  0  0  0  0  0  0  0  0  0  0  0
   11.9328   22.3115   -9.3859 C   0  0  0  0  0  0  0  0  0  0  0  0
   14.6010   20.6301   -9.4453 C   0  0  0  0  0  0  0  0  0  0  0  0
   15.9605   20.6243   -9.6652 C   0  0  0  0  0  0  0  0  0  0  0  0
  1  5  1  0
  1 11  1  0
  2 23  1  0
  3  5  1  0
  4  5  2  0
  4  7  1  0
  6 15  2  0
  6 16  1  0
  7  9  1  0
  7 11  2  0
  8 16  1  0
  8 17  1  0
 10 21  1  0
 10 22  1  0
 10 20  1  0
 12 13  1  0
 12 16  2  0
 13 11  1  0
 13 14  2  0
 14 15  1  0
 17 18  2  0
 17 24  1  0
 18 19  1  0
 19 20  2  0
 20 23  1  0
 23 24  2  0
M  END
$$$$
