BRD4, Ligand 10
     RDKit          3D

 27 30  0  0  1  0  0  0  0  0999 V2000
   14.2547   17.0265    5.1962 C   0  0  0  0  0  0  0  0  0  0  0  0
   14.7890   18.2659    3.2133 C   0  0  0  0  0  0  0  0  0  0  0  0
   15.5101   17.2545    5.7242 C   0  0  0  0  0  0  0  0  0  0  0  0
   16.0495   18.4892    3.7360 C   0  0  0  0  0  0  0  0  0  0  0  0
   10.7049   14.9465    3.4383 C   0  0  0  0  0  0  0  0  0  0  0  0
   13.8894   17.5330    3.9603 C   0  0  0  0  0  0  0  0  0  0  0  0
   11.5097   17.0173    4.4542 C   0  0  0  0  0  0  0  0  0  0  0  0
   11.2209   17.8654    5.5732 C   0  0  0  0  0  0  0  0  0  0  0  0
   16.4051   17.9930    4.9781 C   0  0  0  0  0  0  0  0  0  0  0  0
   10.6991   15.8932    4.4549 C   0  0  0  0  0  0  0  0  0  0  0  0
   10.8493   15.3757    2.1447 C   0  0  0  0  0  0  0  0  0  0  0  0
   10.5329   13.5416    3.3747 C   0  0  0  0  0  0  0  0  0  0  0  0
   10.1954   17.3625    6.3565 C   0  0  0  0  0  0  0  0  0  0  0  0
   12.5382   17.2447    3.4418 C   0  0  0  0  0  0  0  0  0  0  0  0
   11.3411   18.2901   -0.2450 C   0  0  0  0  0  0  0  0  0  0  0  0
   11.0674   16.7579    1.6569 C   0  0  0  0  0  0  0  0  0  0  0  0
   11.8900   19.1513    5.8577 C   0  0  0  0  0  0  0  0  0  0  0  0
   10.3210   12.5661    4.4585 C   0  0  0  0  0  0  0  0  0  0  0  0
    9.5948   17.9265    7.5823 C   0  0  0  0  0  0  0  0  0  0  0  0
   11.0829   16.8685    0.1516 C   0  0  0  0  0  0  0  0  0  0  0  0
   10.5860   13.1448    2.0949 N   0  0  0  0  0  0  0  0  0  0  0  0
   12.3971   17.1190    2.1496 N   0  0  0  0  0  0  0  0  0  0  0  0
   11.8808   18.3738   -1.5024 N   0  0  0  0  0  0  0  0  0  0  0  0
   11.0891   19.2574    0.4605 O   0  0  0  0  0  0  0  0  0  0  0  0
   10.7935   14.2899    1.3191 O   0  0  0  0  0  0  0  0  0  0  0  0
    9.5965   15.8640    5.7635 S   0  0  0  0  0  0  0  0  0  0  0  0
   17.9850   18.2843    5.6252 Cl  0  0  0  0  0  0  0  0  0  0  0  0
  1  3  2  0
  1  6  1  0
  2  4  1  0
  2  6  2  0
  3  9  1  0
  4  9  2  0
  5 10  1  0
  5 11  2  0
  5 12  1  0
  6 14  1  0
  7  8  1  0
  7 10  2  0
  7 14  1  0
  8 13  2  0
  8 17  1  0
  9 27  1  0
 10 26  1  0
 11 16  1  0
 11 25  1  0
 12 18  1  0
 12 21  2  0
 13 19  1  0
 13 26  1  0
 14 22  2  0
 15 20  1  0
 15 23  1  0
 15 24  2  0
 16 20  1  0
 16 22  1  0
 21 25  1  0
M  END
$$$$
