BRD4, Ligand 7
     RDKit          3D

 23 26  0  0  0  0  0  0  0  0999 V2000
   10.1469   10.7407    1.4033 Cl  0  0  0  0  0  0  0  0  0  0  0  0
    8.9400   10.6901    0.1288 C   0  0  0  0  0  0  0  0  0  0  0  0
    9.2506   11.1924   -1.1107 C   0  0  0  0  0  0  0  0  0  0  0  0
    8.2817   11.1218   -2.1265 C   0  0  0  0  0  0  0  0  0  0  0  0
    8.6418   11.6556   -3.4784 C   0  0  0  0  0  0  0  0  0  0  0  0
    9.9895   11.3047   -4.0507 C   0  0  0  0  0  0  0  0  0  0  0  0
   10.7232   10.1921   -3.6083 C   0  0  0  0  0  0  0  0  0  0  0  0
   11.9317    9.8421   -4.2170 C   0  0  0  0  0  0  0  0  0  0  0  0
   12.4095   10.5920   -5.2847 C   0  0  0  0  0  0  0  0  0  0  0  0
   11.6532   11.6737   -5.7503 C   0  0  0  0  0  0  0  0  0  0  0  0
   10.4715   12.0336   -5.1383 C   0  0  0  0  0  0  0  0  0  0  0  0
    7.7695   12.2633   -4.2185 N   0  0  0  0  0  0  0  0  0  0  0  0
    6.4026   12.5939   -3.8267 N   0  0  0  0  0  0  0  0  0  0  0  0
    5.7869   13.8051   -4.3167 C   0  0  0  0  0  0  0  0  0  0  0  0
    5.6553   11.4848   -3.5955 C   0  0  0  0  0  0  0  0  0  0  0  0
    5.9941   10.4798   -2.8187 N   0  0  0  0  0  0  0  0  0  0  0  0
    5.1075    9.4813   -2.9969 C   0  0  0  0  0  0  0  0  0  0  0  0
    5.0211    8.1616   -2.3144 C   0  0  0  0  0  0  0  0  0  0  0  0
    4.2579    9.8518   -3.9458 N   0  0  0  0  0  0  0  0  0  0  0  0
    4.5901   11.1577   -4.3484 N   0  0  0  0  0  0  0  0  0  0  0  0
    7.0129   10.5580   -1.8812 C   0  0  0  0  0  0  0  0  0  0  0  0
    6.7596   10.1198   -0.5672 C   0  0  0  0  0  0  0  0  0  0  0  0
    7.7085   10.1505    0.4299 C   0  0  0  0  0  0  0  0  0  0  0  0
  1  2  1  0
  2  3  2  0
  2 23  1  0
  3  4  1  0
  4  5  1  0
  4 21  2  0
  5  6  1  0
  5 12  2  0
  6  7  2  0
  6 11  1  0
  7  8  1  0
  8  9  2  0
  9 10  1  0
 10 11  2  0
 12 13  1  0
 13 14  1  0
 13 15  1  0
 15 16  1  0
 15 20  2  0
 16 17  1  0
 16 21  1  0
 17 18  1  0
 17 19  2  0
 19 20  1  0
 21 22  1  0
 22 23  2  0
M  END
$$$$
