BRD4, Ligand 2
     RDKit          3D

 15 17  0  0  0  0  0  0  0  0999 V2000
    2.3290   -0.4450   12.7930 C   0  0  0  0  0  0  0  0  0  0  0  0
    2.7590    0.8410   12.6090 C   0  0  0  0  0  0  0  0  0  0  0  0
    2.6270    1.7630   13.6140 C   0  0  0  0  0  0  0  0  0  0  0  0
    2.8130   -4.6970   13.0350 C   0  0  0  0  0  0  0  0  0  0  0  0
    2.0240    1.4500   14.7790 C   0  0  0  0  0  0  0  0  0  0  0  0
    1.5500    0.2180   14.9900 C   0  0  0  0  0  0  0  0  0  0  0  0
    1.7130   -0.7570   14.0030 C   0  0  0  0  0  0  0  0  0  0  0  0
    2.3660   -3.8640   11.0930 C   0  0  0  0  0  0  0  0  0  0  0  0
    2.0930   -3.6140    9.8130 N   0  0  0  0  0  0  0  0  0  0  0  0
    2.5720   -5.0630   11.7030 N   0  0  0  0  0  0  0  0  0  0  0  0
    2.2010   -1.4470   11.7510 C   0  0  0  0  0  0  0  0  0  0  0  0
    1.8860   -2.2960    9.4870 C   0  0  0  0  0  0  0  0  0  0  0  0
    2.7610   -3.3370   13.3270 N   0  0  0  0  0  0  0  0  0  0  0  0
    2.4620   -2.7980   12.1030 N   0  0  0  0  0  0  0  0  0  0  0  0
    1.9410   -1.2450   10.4130 C   0  0  0  0  0  0  0  0  0  0  0  0
  1  2  2  0
  1  7  1  0
  1 11  1  0
  2  3  1  0
  3  5  2  0
  4 10  1  0
  4 13  2  0
  5  6  1  0
  6  7  2  0
  8  9  1  0
  8 10  2  0
  8 14  1  0
  9 12  2  0
 11 14  1  0
 11 15  2  0
 12 15  1  0
 13 14  1  0
M  END
$$$$
