BRD4, Ligand 1
     RDKit          3D

 15 17  0  0  0  0  0  0  0  0999 V2000
   14.3975   -1.9256    1.8399 N   0  0  0  0  0  0  0  0  0  0  0  0
   12.6779   -1.5630    0.1999 N   0  0  0  0  0  0  0  0  0  0  0  0
   15.7413   -2.1212    1.8696 N   0  0  0  0  0  0  0  0  0  0  0  0
   15.0332   -1.8880   -0.2823 N   0  0  0  0  0  0  0  0  0  0  0  0
   13.4907   -1.8538    2.9053 C   0  0  0  0  0  0  0  0  0  0  0  0
   12.1917   -1.6403    2.6363 C   0  0  0  0  0  0  0  0  0  0  0  0
   13.9866   -1.7818    0.5125 C   0  0  0  0  0  0  0  0  0  0  0  0
   11.8393   -1.4949    1.1912 C   0  0  0  0  0  0  0  0  0  0  0  0
   16.0612   -2.0927    0.5793 C   0  0  0  0  0  0  0  0  0  0  0  0
   13.9230   -2.0189    4.3045 C   0  0  0  0  0  0  0  0  0  0  0  0
   13.5441   -1.0821    5.2670 C   0  0  0  0  0  0  0  0  0  0  0  0
   13.9534   -1.2374    6.5917 C   0  0  0  0  0  0  0  0  0  0  0  0
   14.7424   -2.3299    6.9542 C   0  0  0  0  0  0  0  0  0  0  0  0
   15.1215   -3.2655    5.9927 C   0  0  0  0  0  0  0  0  0  0  0  0
   14.7116   -3.1110    4.6690 C   0  0  0  0  0  0  0  0  0  0  0  0
  1  3  1  0
  1  5  1  0
  1  7  1  0
  2  7  1  0
  2  8  2  0
  3  9  2  0
  4  7  2  0
  4  9  1  0
  5  6  2  0
  5 10  1  0
  6  8  1  0
 10 11  2  0
 10 15  1  0
 11 12  1  0
 12 13  2  0
 13 14  1  0
 14 15  2  0
M  END
$$$$
