BRD4, Ligand 4
     RDKit          3D

 13 14  0  0  0  0  0  0  0  0999 V2000
   10.9314    5.6371   -0.1969 O   0  0  0  0  0  0  0  0  0  0  0  0
   11.2912    5.8606    0.9930 C   0  0  0  0  0  0  0  0  0  0  0  0
   12.5279    6.5259    1.2865 N   0  0  0  0  0  0  0  0  0  0  0  0
   13.1153    6.4556    2.5698 C   0  0  0  0  0  0  0  0  0  0  0  0
   14.4981    6.6681    2.7468 C   0  0  0  0  0  0  0  0  0  0  0  0
   15.0738    6.5743    3.9874 C   0  0  0  0  0  0  0  0  0  0  0  0
   14.2998    6.2793    5.0938 C   0  0  0  0  0  0  0  0  0  0  0  0
   15.1095    6.2315    6.8521 Br  0  0  0  0  0  0  0  0  0  0  0  0
   12.9191    6.1264    4.9433 C   0  0  0  0  0  0  0  0  0  0  0  0
   12.3167    6.1662    3.6759 C   0  0  0  0  0  0  0  0  0  0  0  0
   10.9073    6.0209    3.4660 C   0  0  0  0  0  0  0  0  0  0  0  0
   10.5380    5.5204    2.0682 N   0  0  0  0  0  0  0  0  0  0  0  0
    9.1943    4.9476    1.9124 C   0  0  0  0  0  0  0  0  0  0  0  0
  1  2  2  0
  2  3  1  0
  2 12  1  0
  3  4  1  0
  4  5  1  0
  4 10  2  0
  5  6  2  0
  6  7  1  0
  7  8  1  0
  7  9  2  0
  9 10  1  0
 10 11  1  0
 11 12  1  0
 12 13  1  0
M  END
$$$$
