BRD4, Ligand 2
     RDKit          3D

 17 19  0  0  0  0  0  0  0  0999 V2000
    8.5427    0.2362   17.7219 C   0  0  0  0  0  0  0  0  0  0  0  0
    8.7591    1.5874   17.7168 C   0  0  0  0  0  0  0  0  0  0  0  0
    8.6392    2.3096   18.8750 C   0  0  0  0  0  0  0  0  0  0  0  0
    9.6452   -3.8684   17.1657 C   0  0  0  0  0  0  0  0  0  0  0  0
    8.2522    1.7276   20.0284 C   0  0  0  0  0  0  0  0  0  0  0  0
    7.9888    0.4178   20.0743 C   0  0  0  0  0  0  0  0  0  0  0  0
    8.1490   -0.3540   18.9210 C   0  0  0  0  0  0  0  0  0  0  0  0
    8.8229   -2.8281   15.4608 C   0  0  0  0  0  0  0  0  0  0  0  0
    8.3439   -2.4305   14.2828 N   0  0  0  0  0  0  0  0  0  0  0  0
    9.2766   -4.0581   15.8262 N   0  0  0  0  0  0  0  0  0  0  0  0
    8.4137   -0.6002   16.5429 C   0  0  0  0  0  0  0  0  0  0  0  0
   10.1973   -4.9449   17.8777 N   0  0  0  0  0  0  0  0  0  0  0  0
    7.9116   -1.1286   14.2160 C   0  0  0  0  0  0  0  0  0  0  0  0
    7.3182   -0.5715   12.9086 C   0  0  0  0  0  0  0  0  0  0  0  0
    9.4443   -2.5961   17.6934 N   0  0  0  0  0  0  0  0  0  0  0  0
    8.9071   -1.9296   16.6233 N   0  0  0  0  0  0  0  0  0  0  0  0
    7.9462   -0.2383   15.2983 C   0  0  0  0  0  0  0  0  0  0  0  0
  1  2  2  0
  1  7  1  0
  1 11  1  0
  2  3  1  0
  3  5  2  0
  4 10  1  0
  4 12  1  0
  4 15  2  0
  5  6  1  0
  6  7  2  0
  8  9  1  0
  8 10  2  0
  8 16  1  0
  9 13  2  0
 11 16  1  0
 11 17  2  0
 13 14  1  0
 13 17  1  0
 15 16  1  0
M  END
$$$$
