BRD4, Ligand 9
     RDKit          3D

 31 34  0  0  1  0  0  0  0  0999 V2000
   12.1628    2.4441   12.6701 C   0  0  0  0  0  0  0  0  0  0  0  0
   11.5664    4.6996   18.2829 C   0  0  0  0  0  0  0  0  0  0  0  0
   12.1115    1.8284   19.4033 C   0  0  0  0  0  0  0  0  0  0  0  0
   15.9947   -2.0213   19.8562 C   0  0  0  0  0  0  0  0  0  0  0  0
   18.3855   -1.0901   19.8716 C   0  0  0  0  0  0  0  0  0  0  0  0
   16.4313    0.3792   20.3432 C   0  0  0  0  0  0  0  0  0  0  0  0
   17.4846   -2.3973   17.2039 O   0  0  0  0  0  0  0  0  0  0  0  0
    9.1225   -3.6420   19.8708 Cl  0  0  0  0  0  0  0  0  0  0  0  0
    9.9231   -1.3735   18.6523 C   0  0  0  0  0  0  0  0  0  0  0  0
   11.6281   -3.0227   18.9241 C   0  0  0  0  0  0  0  0  0  0  0  0
   10.8430   -0.5304   18.0209 C   0  0  0  0  0  0  0  0  0  0  0  0
   12.5410   -2.1936   18.2818 C   0  0  0  0  0  0  0  0  0  0  0  0
   16.5061   -0.7509   15.7356 C   0  0  0  0  0  0  0  0  0  0  0  0
   14.1691   -0.6832   16.6065 N   0  0  0  0  0  0  0  0  0  0  0  0
   14.1436    0.8580   12.5695 N   0  0  0  0  0  0  0  0  0  0  0  0
   14.9464    0.2500   13.3641 N   0  0  0  0  0  0  0  0  0  0  0  0
   16.6786   -0.5118   18.1351 O   0  0  0  0  0  0  0  0  0  0  0  0
   12.5503    3.6293   15.8007 S   0  0  0  0  0  0  0  0  0  0  0  0
   16.9338   -1.3024   17.1003 C   0  0  0  0  0  0  0  0  0  0  0  0
   13.1245   -0.0657   17.1828 C   0  0  0  0  0  0  0  0  0  0  0  0
   10.3023   -2.6244   19.0792 C   0  0  0  0  0  0  0  0  0  0  0  0
   13.2815    1.5999   13.2838 C   0  0  0  0  0  0  0  0  0  0  0  0
   12.1602   -0.9209   17.8237 C   0  0  0  0  0  0  0  0  0  0  0  0
   12.1132    3.5039   17.4659 C   0  0  0  0  0  0  0  0  0  0  0  0
   12.3616    2.2209   17.9377 C   0  0  0  0  0  0  0  0  0  0  0  0
   14.6102    0.6008   14.6202 C   0  0  0  0  0  0  0  0  0  0  0  0
   12.8440    1.3141   16.9549 C   0  0  0  0  0  0  0  0  0  0  0  0
   12.9961    1.9564   15.7110 C   0  0  0  0  0  0  0  0  0  0  0  0
   15.2499    0.0902   15.9280 C   0  0  0  0  0  0  0  0  0  0  0  0
   13.5529    1.4127   14.5933 N   0  0  0  0  0  0  0  0  0  0  0  0
   16.8953   -0.8506   19.5546 C   0  0  0  0  0  0  0  0  0  0  0  0
  1 22  1  0
  2 24  1  0
  3 25  1  0
  4 31  1  0
  5 31  1  0
  6 31  1  0
  7 19  2  0
  8 21  1  0
  9 11  2  0
  9 21  1  0
 10 12  1  0
 10 21  2  0
 11 23  1  0
 12 23  2  0
 13 19  1  0
 13 29  1  0
 14 20  2  0
 14 29  1  0
 15 16  1  0
 15 22  2  0
 16 26  2  0
 17 19  1  0
 17 31  1  0
 18 24  1  0
 18 28  1  0
 20 23  1  0
 20 27  1  0
 22 30  1  0
 24 25  2  0
 25 27  1  0
 26 29  1  0
 26 30  1  0
 27 28  2  0
 28 30  1  0
M  END
$$$$
