BRD4, Ligand 10
     RDKit          3D

 19 22  0  0  1  0  0  0  0  0999 V2000
    8.8370   13.9544   -0.8140 C   0  0  0  0  0  0  0  0  0  0  0  0
    9.3713   15.1937   -2.7969 C   0  0  0  0  0  0  0  0  0  0  0  0
   10.0924   14.1824   -0.2860 C   0  0  0  0  0  0  0  0  0  0  0  0
   10.6318   15.4171   -2.2742 C   0  0  0  0  0  0  0  0  0  0  0  0
    5.2872   11.8744   -2.5719 C   0  0  0  0  0  0  0  0  0  0  0  0
    8.4717   14.4609   -2.0499 C   0  0  0  0  0  0  0  0  0  0  0  0
    6.0920   13.9451   -1.5560 C   0  0  0  0  0  0  0  0  0  0  0  0
    5.8032   14.7932   -0.4370 C   0  0  0  0  0  0  0  0  0  0  0  0
   10.9874   14.9209   -1.0321 C   0  0  0  0  0  0  0  0  0  0  0  0
    5.2814   12.8211   -1.5553 C   0  0  0  0  0  0  0  0  0  0  0  0
    5.4316   12.3035   -3.8655 C   0  0  0  0  0  0  0  0  0  0  0  0
    5.1152   10.4694   -2.6355 C   0  0  0  0  0  0  0  0  0  0  0  0
    4.7777   14.2903    0.3463 C   0  0  0  0  0  0  0  0  0  0  0  0
    7.1205   14.1725   -2.5684 C   0  0  0  0  0  0  0  0  0  0  0  0
    5.6497   13.6858   -4.3533 C   0  0  0  0  0  0  0  0  0  0  0  0
    5.1683   10.0726   -3.9153 N   0  0  0  0  0  0  0  0  0  0  0  0
    6.9794   14.0469   -3.8606 N   0  0  0  0  0  0  0  0  0  0  0  0
    5.3758   11.2178   -4.6911 O   0  0  0  0  0  0  0  0  0  0  0  0
    4.1788   12.7918   -0.2467 S   0  0  0  0  0  0  0  0  0  0  0  0
  1  3  2  0
  1  6  1  0
  2  4  1  0
  2  6  2  0
  3  9  1  0
  4  9  2  0
  5 10  1  0
  5 11  2  0
  5 12  1  0
  6 14  1  0
  7  8  1  0
  7 10  2  0
  7 14  1  0
  8 13  2  0
 10 19  1  0
 11 15  1  0
 11 18  1  0
 12 16  2  0
 13 19  1  0
 14 17  2  0
 15 17  1  0
 16 18  1  0
M  END
$$$$
