BRD4, Ligand 4
     RDKit          3D

 13 14  0  0  0  0  0  0  0  0999 V2000
   12.0114   10.4184    5.0164 O   0  0  0  0  0  0  0  0  0  0  0  0
   12.3713   10.6420    6.2063 C   0  0  0  0  0  0  0  0  0  0  0  0
   13.6079   11.3073    6.4999 N   0  0  0  0  0  0  0  0  0  0  0  0
   14.1954   11.2369    7.7831 C   0  0  0  0  0  0  0  0  0  0  0  0
   15.5781   11.4494    7.9602 C   0  0  0  0  0  0  0  0  0  0  0  0
   16.1539   11.3556    9.2008 C   0  0  0  0  0  0  0  0  0  0  0  0
   15.3798   11.0606   10.3071 C   0  0  0  0  0  0  0  0  0  0  0  0
   16.1895   11.0128   12.0654 Br  0  0  0  0  0  0  0  0  0  0  0  0
   13.9991   10.9077   10.1567 C   0  0  0  0  0  0  0  0  0  0  0  0
   13.3967   10.9475    8.8893 C   0  0  0  0  0  0  0  0  0  0  0  0
   11.9874   10.8023    8.6793 C   0  0  0  0  0  0  0  0  0  0  0  0
   11.6180   10.3018    7.2816 N   0  0  0  0  0  0  0  0  0  0  0  0
   10.2743    9.7289    7.1258 C   0  0  0  0  0  0  0  0  0  0  0  0
  1  2  2  0
  2  3  1  0
  2 12  1  0
  3  4  1  0
  4  5  1  0
  4 10  2  0
  5  6  2  0
  6  7  1  0
  7  8  1  0
  7  9  2  0
  9 10  1  0
 10 11  1  0
 11 12  1  0
 12 13  1  0
M  END
$$$$
