BRD4, Ligand 8
     RDKit          3D

 24 26  0  0  0  0  0  0  0  0999 V2000
    6.0277    5.3089   13.9712 O   0  0  0  0  0  0  0  0  0  0  0  0
    5.8455    5.8212   12.6689 C   0  0  0  0  0  0  0  0  0  0  0  0
    6.2337    3.9711   14.2008 C   0  0  0  0  0  0  0  0  0  0  0  0
    6.5414    3.5329   15.4992 C   0  0  0  0  0  0  0  0  0  0  0  0
    6.7722    2.2313   15.7843 C   0  0  0  0  0  0  0  0  0  0  0  0
    6.9428   -1.0310   13.9176 N   0  0  0  0  0  0  0  0  0  0  0  0
    7.0199    2.7512   18.1490 C   0  0  0  0  0  0  0  0  0  0  0  0
    7.0295    1.7816   17.0745 O   0  0  0  0  0  0  0  0  0  0  0  0
    6.7391    1.2439   14.7863 C   0  0  0  0  0  0  0  0  0  0  0  0
    6.3620   -4.5229    8.7231 O   0  0  0  0  0  0  0  0  0  0  0  0
    6.4228    0.7733   12.4329 N   0  0  0  0  0  0  0  0  0  0  0  0
    6.9897   -0.1486   15.0238 C   0  0  0  0  0  0  0  0  0  0  0  0
    6.6705   -0.5369   12.6793 C   0  0  0  0  0  0  0  0  0  0  0  0
    7.2817   -0.6453   16.1312 O   0  0  0  0  0  0  0  0  0  0  0  0
    6.6311   -1.4840   11.5527 C   0  0  0  0  0  0  0  0  0  0  0  0
    5.8131   -1.3323   10.4136 C   0  0  0  0  0  0  0  0  0  0  0  0
    5.7348   -2.3437    9.4660 C   0  0  0  0  0  0  0  0  0  0  0  0
    4.7807   -2.1253    8.3357 C   0  0  0  0  0  0  0  0  0  0  0  0
    6.5126   -3.5249    9.6062 C   0  0  0  0  0  0  0  0  0  0  0  0
    7.3679   -3.6665   10.6901 C   0  0  0  0  0  0  0  0  0  0  0  0
    8.1980   -4.9090   10.8091 C   0  0  0  0  0  0  0  0  0  0  0  0
    7.4268   -2.6780   11.6468 C   0  0  0  0  0  0  0  0  0  0  0  0
    6.4307    1.7194   13.4777 C   0  0  0  0  0  0  0  0  0  0  0  0
    6.1747    3.0459   13.1719 C   0  0  0  0  0  0  0  0  0  0  0  0
  1  2  1  0
  1  3  1  0
  3  4  2  0
  3 24  1  0
  4  5  1  0
  5  8  1  0
  5  9  2  0
  6 12  1  0
  6 13  1  0
  7  8  1  0
  9 12  1  0
  9 23  1  0
 10 19  1  0
 11 13  2  0
 11 23  1  0
 12 14  2  0
 13 15  1  0
 15 16  2  0
 15 22  1  0
 16 17  1  0
 17 18  1  0
 17 19  2  0
 19 20  1  0
 20 21  1  0
 20 22  2  0
 23 24  2  0
M  END
$$$$
