BRD4, Ligand 5
     RDKit          3D

 20 23  0  0  1  0  0  0  0  0999 V2000
    8.1129   -3.4987   11.7531 C   0  0  0  0  0  0  0  0  0  0  0  0
    7.9442   -2.6033   12.8212 C   0  0  0  0  0  0  0  0  0  0  0  0
    7.6537   -1.2778   12.5241 C   0  0  0  0  0  0  0  0  0  0  0  0
    7.4819   -0.7992   11.2192 C   0  0  0  0  0  0  0  0  0  0  0  0
    7.6476   -1.7071   10.1582 C   0  0  0  0  0  0  0  0  0  0  0  0
    7.9409   -3.0351   10.4399 C   0  0  0  0  0  0  0  0  0  0  0  0
    8.0834   -3.8259    9.3093 N   0  0  0  0  0  0  0  0  0  0  0  0
    7.3916   -3.8647    8.1392 C   0  0  0  0  0  0  0  0  0  0  0  0
    7.9204   -4.7961    7.3425 N   0  0  0  0  0  0  0  0  0  0  0  0
    8.9329   -5.3199    7.9323 N   0  0  0  0  0  0  0  0  0  0  0  0
    9.0466   -4.7416    9.1500 C   0  0  0  0  0  0  0  0  0  0  0  0
   10.0252   -5.1103   10.2212 C   0  0  0  0  0  0  0  0  0  0  0  0
    9.1775   -5.6392   11.3236 N   0  0  0  0  0  0  0  0  0  0  0  0
    8.4151   -4.8498   12.1123 C   0  0  0  0  0  0  0  0  0  0  0  0
    7.6577   -5.5415   13.1282 C   0  0  0  0  0  0  0  0  0  0  0  0
    6.4272   -5.0576   13.5641 C   0  0  0  0  0  0  0  0  0  0  0  0
    5.6494   -5.7560   14.4891 C   0  0  0  0  0  0  0  0  0  0  0  0
    6.0969   -6.9494   15.0497 C   0  0  0  0  0  0  0  0  0  0  0  0
    7.3242   -7.4247   14.6318 C   0  0  0  0  0  0  0  0  0  0  0  0
    8.0905   -6.7313   13.6997 C   0  0  0  0  0  0  0  0  0  0  0  0
  1  2  2  0
  1  6  1  0
  1 14  1  0
  2  3  1  0
  3  4  2  0
  4  5  1  0
  5  6  2  0
  6  7  1  0
  7  8  1  0
  7 11  1  0
  8  9  2  0
  9 10  1  0
 10 11  2  0
 11 12  1  0
 12 13  1  0
 13 14  1  0
 14 15  1  0
 15 16  2  0
 15 20  1  0
 16 17  1  0
 17 18  2  0
 18 19  1  0
 19 20  2  0
M  END
$$$$
