BRD4, Ligand 5
     RDKit          3D

 22 25  0  0  1  0  0  0  0  0999 V2000
    9.4392   -2.5893   15.0830 C   0  0  0  0  0  0  0  0  0  0  0  0
    9.2705   -1.6939   16.1512 C   0  0  0  0  0  0  0  0  0  0  0  0
    8.9800   -0.3683   15.8541 C   0  0  0  0  0  0  0  0  0  0  0  0
    8.7590    0.7841   17.1436 Cl  0  0  0  0  0  0  0  0  0  0  0  0
    8.8082    0.1103   14.5491 C   0  0  0  0  0  0  0  0  0  0  0  0
    8.9739   -0.7977   13.4881 C   0  0  0  0  0  0  0  0  0  0  0  0
    9.2672   -2.1257   13.7698 C   0  0  0  0  0  0  0  0  0  0  0  0
    9.4097   -2.9165   12.6393 N   0  0  0  0  0  0  0  0  0  0  0  0
    8.7179   -2.9553   11.4691 C   0  0  0  0  0  0  0  0  0  0  0  0
    7.4762   -2.1366   11.0682 C   0  0  0  0  0  0  0  0  0  0  0  0
    9.2467   -3.8867   10.6724 N   0  0  0  0  0  0  0  0  0  0  0  0
   10.2592   -4.4105   11.2623 N   0  0  0  0  0  0  0  0  0  0  0  0
   10.3729   -3.8322   12.4800 C   0  0  0  0  0  0  0  0  0  0  0  0
   11.3515   -4.2008   13.5512 C   0  0  0  0  0  0  0  0  0  0  0  0
   10.5038   -4.7297   14.6535 N   0  0  0  0  0  0  0  0  0  0  0  0
    9.7414   -3.9403   15.4422 C   0  0  0  0  0  0  0  0  0  0  0  0
    8.9840   -4.6321   16.4581 C   0  0  0  0  0  0  0  0  0  0  0  0
    7.7535   -4.1481   16.8940 C   0  0  0  0  0  0  0  0  0  0  0  0
    6.9757   -4.8465   17.8191 C   0  0  0  0  0  0  0  0  0  0  0  0
    7.4232   -6.0399   18.3796 C   0  0  0  0  0  0  0  0  0  0  0  0
    8.6505   -6.5153   17.9618 C   0  0  0  0  0  0  0  0  0  0  0  0
    9.4168   -5.8219   17.0296 C   0  0  0  0  0  0  0  0  0  0  0  0
  1  2  2  0
  1  7  1  0
  1 16  1  0
  2  3  1  0
  3  4  1  0
  3  5  2  0
  5  6  1  0
  6  7  2  0
  7  8  1  0
  8  9  1  0
  8 13  1  0
  9 10  1  0
  9 11  2  0
 11 12  1  0
 12 13  2  0
 13 14  1  0
 14 15  1  0
 15 16  1  0
 16 17  1  0
 17 18  2  0
 17 22  1  0
 18 19  1  0
 19 20  2  0
 20 21  1  0
 21 22  2  0
M  END
$$$$
