BRD4, Ligand 3
     RDKit          3D

 17 19  0  0  1  0  0  0  0  0999 V2000
   14.8225   -2.6526    7.0670 C   0  0  0  0  0  0  0  0  0  0  0  0
   15.9205   -2.9824    6.0878 C   0  0  0  0  0  0  0  0  0  0  0  0
   17.1348   -3.2244    6.6096 C   0  0  0  0  0  0  0  0  0  0  0  0
   14.5694   -1.1432    7.0624 C   0  0  0  0  0  0  0  0  0  0  0  0
   14.2261   -0.5773    5.6820 C   0  0  0  0  0  0  0  0  0  0  0  0
   13.4919   -1.5551    4.7811 C   0  0  0  0  0  0  0  0  0  0  0  0
   12.1764   -1.3042    4.4056 C   0  0  0  0  0  0  0  0  0  0  0  0
   11.4887   -2.1826    3.5783 C   0  0  0  0  0  0  0  0  0  0  0  0
   12.1065   -3.3207    3.1277 C   0  0  0  0  0  0  0  0  0  0  0  0
   13.4142   -3.5686    3.4757 C   0  0  0  0  0  0  0  0  0  0  0  0
   14.1147   -2.6937    4.3103 C   0  0  0  0  0  0  0  0  0  0  0  0
   15.5409   -3.0075    4.6761 C   0  0  0  0  0  0  0  0  0  0  0  0
   16.3225   -3.2654    3.6014 C   0  0  0  0  0  0  0  0  0  0  0  0
   17.7163   -3.6270    3.5082 C   0  0  0  0  0  0  0  0  0  0  0  0
   18.5907   -3.7708    4.5038 C   0  0  0  0  0  0  0  0  0  0  0  0
   18.3743   -3.5902    5.9305 C   0  0  0  0  0  0  0  0  0  0  0  0
   19.3397   -3.7904    6.6624 O   0  0  0  0  0  0  0  0  0  0  0  0
  1  2  1  0
  1  4  1  0
  2  3  2  0
  2 12  1  0
  3 16  1  0
  4  5  1  0
  5  6  1  0
  6  7  1  0
  6 11  2  0
  7  8  2  0
  8  9  1  0
  9 10  2  0
 10 11  1  0
 11 12  1  0
 12 13  2  0
 13 14  1  0
 14 15  2  0
 15 16  1  0
 16 17  2  0
M  END
$$$$
